* NGSPICE file created from spm_top.ext - technology: sky130A

* Black-box entry subcircuit for sky130_fd_sc_hd__decap_12 abstract view
.subckt sky130_fd_sc_hd__decap_12 VGND VNB VPB VPWR
.ends

* Black-box entry subcircuit for sky130_fd_sc_hd__diode_2 abstract view
.subckt sky130_fd_sc_hd__diode_2 DIODE VGND VNB VPB VPWR
.ends

* Black-box entry subcircuit for sky130_fd_sc_hd__o22a_4 abstract view
.subckt sky130_fd_sc_hd__o22a_4 A1 A2 B1 B2 VGND VNB VPB VPWR X
.ends

* Black-box entry subcircuit for sky130_fd_sc_hd__buf_2 abstract view
.subckt sky130_fd_sc_hd__buf_2 A VGND VNB VPB VPWR X
.ends

* Black-box entry subcircuit for sky130_fd_sc_hd__and2_4 abstract view
.subckt sky130_fd_sc_hd__and2_4 A B VGND VNB VPB VPWR X
.ends

* Black-box entry subcircuit for sky130_fd_sc_hd__inv_2 abstract view
.subckt sky130_fd_sc_hd__inv_2 A VGND VNB VPB VPWR Y
.ends

* Black-box entry subcircuit for sky130_fd_sc_hd__fill_2 abstract view
.subckt sky130_fd_sc_hd__fill_2 VGND VNB VPB VPWR
.ends

* Black-box entry subcircuit for sky130_fd_sc_hd__clkbuf_1 abstract view
.subckt sky130_fd_sc_hd__clkbuf_1 A VGND VNB VPB VPWR X
.ends

* Black-box entry subcircuit for sky130_fd_sc_hd__a21o_4 abstract view
.subckt sky130_fd_sc_hd__a21o_4 A1 A2 B1 VGND VNB VPB VPWR X
.ends

* Black-box entry subcircuit for sky130_fd_sc_hd__fill_1 abstract view
.subckt sky130_fd_sc_hd__fill_1 VGND VNB VPB VPWR
.ends

* Black-box entry subcircuit for sky130_fd_sc_hd__decap_8 abstract view
.subckt sky130_fd_sc_hd__decap_8 VGND VNB VPB VPWR
.ends

* Black-box entry subcircuit for sky130_fd_sc_hd__dfrtp_4 abstract view
.subckt sky130_fd_sc_hd__dfrtp_4 CLK D RESET_B VGND VNB VPB VPWR Q
.ends

* Black-box entry subcircuit for sky130_fd_sc_hd__decap_3 abstract view
.subckt sky130_fd_sc_hd__decap_3 VGND VNB VPB VPWR
.ends

* Black-box entry subcircuit for sky130_fd_sc_hd__decap_4 abstract view
.subckt sky130_fd_sc_hd__decap_4 VGND VNB VPB VPWR
.ends

* Black-box entry subcircuit for sky130_fd_sc_hd__tapvpwrvgnd_1 abstract view
.subckt sky130_fd_sc_hd__tapvpwrvgnd_1 VGND VPWR
.ends

* Black-box entry subcircuit for sky130_fd_sc_hd__dfxtp_4 abstract view
.subckt sky130_fd_sc_hd__dfxtp_4 CLK D VGND VNB VPB VPWR Q
.ends

* Black-box entry subcircuit for sky130_fd_sc_hd__and3_4 abstract view
.subckt sky130_fd_sc_hd__and3_4 A B C VGND VNB VPB VPWR X
.ends

* Black-box entry subcircuit for sky130_fd_sc_hd__decap_6 abstract view
.subckt sky130_fd_sc_hd__decap_6 VGND VNB VPB VPWR
.ends

* Black-box entry subcircuit for sky130_fd_sc_hd__a32o_4 abstract view
.subckt sky130_fd_sc_hd__a32o_4 A1 A2 A3 B1 B2 VGND VNB VPB VPWR X
.ends

* Black-box entry subcircuit for sky130_fd_sc_hd__o21ai_4 abstract view
.subckt sky130_fd_sc_hd__o21ai_4 A1 A2 B1 VGND VNB VPB VPWR Y
.ends

* Black-box entry subcircuit for sky130_fd_sc_hd__a2bb2o_4 abstract view
.subckt sky130_fd_sc_hd__a2bb2o_4 A1_N A2_N B1 B2 VGND VNB VPB VPWR X
.ends

* Black-box entry subcircuit for sky130_fd_sc_hd__or3_4 abstract view
.subckt sky130_fd_sc_hd__or3_4 A B C VGND VNB VPB VPWR X
.ends

* Black-box entry subcircuit for sky130_fd_sc_hd__a211o_4 abstract view
.subckt sky130_fd_sc_hd__a211o_4 A1 A2 B1 C1 VGND VNB VPB VPWR X
.ends

* Black-box entry subcircuit for sky130_fd_sc_hd__or2_4 abstract view
.subckt sky130_fd_sc_hd__or2_4 A B VGND VNB VPB VPWR X
.ends

* Black-box entry subcircuit for sky130_fd_sc_hd__buf_8 abstract view
.subckt sky130_fd_sc_hd__buf_8 A VGND VNB VPB VPWR X
.ends

* Black-box entry subcircuit for sky130_fd_sc_hd__o21a_4 abstract view
.subckt sky130_fd_sc_hd__o21a_4 A1 A2 B1 VGND VNB VPB VPWR X
.ends

* Black-box entry subcircuit for sky130_fd_sc_hd__buf_4 abstract view
.subckt sky130_fd_sc_hd__buf_4 A VGND VNB VPB VPWR X
.ends

* Black-box entry subcircuit for sky130_fd_sc_hd__and4_4 abstract view
.subckt sky130_fd_sc_hd__and4_4 A B C D VGND VNB VPB VPWR X
.ends

* Black-box entry subcircuit for sky130_fd_sc_hd__nand2_4 abstract view
.subckt sky130_fd_sc_hd__nand2_4 A B VGND VNB VPB VPWR Y
.ends

* Black-box entry subcircuit for sky130_fd_sc_hd__dfstp_4 abstract view
.subckt sky130_fd_sc_hd__dfstp_4 CLK D SET_B VGND VNB VPB VPWR Q
.ends

* Black-box entry subcircuit for sky130_fd_sc_hd__nor2_4 abstract view
.subckt sky130_fd_sc_hd__nor2_4 A B VGND VNB VPB VPWR Y
.ends

* Black-box entry subcircuit for sky130_fd_sc_hd__clkbuf_16 abstract view
.subckt sky130_fd_sc_hd__clkbuf_16 A VGND VNB VPB VPWR X
.ends

* Black-box entry subcircuit for sky130_fd_sc_hd__or4_4 abstract view
.subckt sky130_fd_sc_hd__or4_4 A B C D VGND VNB VPB VPWR X
.ends

* Black-box entry subcircuit for sky130_fd_sc_hd__a21boi_4 abstract view
.subckt sky130_fd_sc_hd__a21boi_4 A1 A2 B1_N VGND VNB VPB VPWR Y
.ends

* Black-box entry subcircuit for sky130_fd_sc_hd__inv_8 abstract view
.subckt sky130_fd_sc_hd__inv_8 A VGND VNB VPB VPWR Y
.ends

* Black-box entry subcircuit for sky130_fd_sc_hd__o32a_4 abstract view
.subckt sky130_fd_sc_hd__o32a_4 A1 A2 A3 B1 B2 VGND VNB VPB VPWR X
.ends

.subckt spm_top clk done mc[0] mc[10] mc[11] mc[12] mc[13] mc[14] mc[15] mc[16] mc[17]
+ mc[18] mc[19] mc[1] mc[20] mc[21] mc[22] mc[23] mc[24] mc[25] mc[26] mc[27] mc[28]
+ mc[29] mc[2] mc[30] mc[31] mc[3] mc[4] mc[5] mc[6] mc[7] mc[8] mc[9] mp[0] mp[10]
+ mp[11] mp[12] mp[13] mp[14] mp[15] mp[16] mp[17] mp[18] mp[19] mp[1] mp[20] mp[21]
+ mp[22] mp[23] mp[24] mp[25] mp[26] mp[27] mp[28] mp[29] mp[2] mp[30] mp[31] mp[3]
+ mp[4] mp[5] mp[6] mp[7] mp[8] mp[9] prod[0] prod[10] prod[11] prod[12] prod[13]
+ prod[14] prod[15] prod[16] prod[17] prod[18] prod[19] prod[1] prod[20] prod[21]
+ prod[22] prod[23] prod[24] prod[25] prod[26] prod[27] prod[28] prod[29] prod[2]
+ prod[30] prod[31] prod[32] prod[33] prod[34] prod[35] prod[36] prod[37] prod[38]
+ prod[39] prod[3] prod[40] prod[41] prod[42] prod[43] prod[44] prod[45] prod[46]
+ prod[47] prod[48] prod[49] prod[4] prod[50] prod[51] prod[52] prod[53] prod[54]
+ prod[55] prod[56] prod[57] prod[58] prod[59] prod[5] prod[60] prod[61] prod[62]
+ prod[63] prod[6] prod[7] prod[8] prod[9] rst start tck tdi tdo tdo_paden_o tms trst
+ VPWR VGND
XFILLER_79_391 VGND VGND VPWR VPWR sky130_fd_sc_hd__decap_12
XFILLER_94_361 VGND VGND VPWR VPWR sky130_fd_sc_hd__decap_12
XANTENNA___dut__._1505__A rst VGND VGND VPWR VPWR sky130_fd_sc_hd__diode_2
XFILLER_22_166 VGND VGND VPWR VPWR sky130_fd_sc_hd__decap_12
XANTENNA___dut__._1240__A __dut__._1786_/A VGND VGND VPWR VPWR sky130_fd_sc_hd__diode_2
X__dut__.__uuf__._1506_ __dut__._1709_/X __dut__.__uuf__._1494_/X __dut__._1174_/B
+ __dut__.__uuf__._1495_/X VGND VGND VPWR VPWR __dut__.__uuf__._1506_/X sky130_fd_sc_hd__o22a_4
X__dut__.__uuf__._1437_ __dut__.__uuf__._1483_/A VGND VGND VPWR VPWR __dut__.__uuf__._1437_/X
+ sky130_fd_sc_hd__buf_2
XFILLER_77_15 VGND VGND VPWR VPWR sky130_fd_sc_hd__decap_12
X__dut__._1622_ __dut__._1766_/A __dut__._1808_/Q VGND VGND VPWR VPWR __dut__._1622_/X
+ sky130_fd_sc_hd__and2_4
X__dut__.__uuf__._1368_ __dut__._1232_/B VGND VGND VPWR VPWR __dut__.__uuf__._1368_/Y
+ sky130_fd_sc_hd__inv_2
XFILLER_77_306 VGND VGND VPWR VPWR sky130_fd_sc_hd__decap_12
XFILLER_77_59 VGND VGND VPWR VPWR sky130_fd_sc_hd__fill_2
Xclkbuf_4_14_0___dut__.__uuf__.__clk_source__ clkbuf_3_7_0___dut__.__uuf__.__clk_source__/X
+ VGND VGND VPWR VPWR __dut__.__uuf__._2200_/CLK sky130_fd_sc_hd__clkbuf_1
X__dut__.__uuf__._1299_ __dut__.__uuf__._1324_/A VGND VGND VPWR VPWR __dut__.__uuf__._1299_/X
+ sky130_fd_sc_hd__buf_2
X__dut__._1553_ __dut__._1543_/Y mc[11] __dut__._1552_/X VGND VGND VPWR VPWR __dut__._1553_/X
+ sky130_fd_sc_hd__a21o_4
XFILLER_58_520 VGND VGND VPWR VPWR sky130_fd_sc_hd__fill_1
X__dut__._1484_ rst VGND VGND VPWR VPWR __dut__._1484_/Y sky130_fd_sc_hd__inv_2
XANTENNA___dut__._1415__A rst VGND VGND VPWR VPWR sky130_fd_sc_hd__diode_2
XANTENNA___dut__.__uuf__._1047__A __dut__.__uuf__._1612_/A VGND VGND VPWR VPWR sky130_fd_sc_hd__diode_2
XFILLER_45_258 VGND VGND VPWR VPWR sky130_fd_sc_hd__decap_8
XFILLER_60_239 VGND VGND VPWR VPWR sky130_fd_sc_hd__decap_12
X_294_ _313_/CLK _294_/D trst VGND VGND VPWR VPWR _294_/Q sky130_fd_sc_hd__dfrtp_4
XFILLER_9_159 VGND VGND VPWR VPWR sky130_fd_sc_hd__decap_12
XFILLER_5_365 VGND VGND VPWR VPWR sky130_fd_sc_hd__fill_1
XFILLER_95_147 VGND VGND VPWR VPWR sky130_fd_sc_hd__decap_12
XANTENNA__290__CLK _290_/CLK VGND VGND VPWR VPWR sky130_fd_sc_hd__diode_2
XFILLER_64_534 VGND VGND VPWR VPWR sky130_fd_sc_hd__fill_1
XFILLER_91_342 VGND VGND VPWR VPWR sky130_fd_sc_hd__decap_12
XFILLER_36_247 VGND VGND VPWR VPWR sky130_fd_sc_hd__fill_2
XANTENNA___dut__.__uuf__._2202__CLK __dut__.__uuf__._2210_/CLK VGND VGND VPWR VPWR
+ sky130_fd_sc_hd__diode_2
X__dut__.__uuf__._1222_ __dut__.__uuf__._1233_/A VGND VGND VPWR VPWR __dut__.__uuf__._1222_/X
+ sky130_fd_sc_hd__buf_2
XFILLER_59_306 VGND VGND VPWR VPWR sky130_fd_sc_hd__decap_3
XFILLER_101_447 VGND VGND VPWR VPWR sky130_fd_sc_hd__decap_12
X__dut__.__uuf__._1153_ __dut__.__uuf__._1212_/A VGND VGND VPWR VPWR __dut__.__uuf__._1153_/X
+ sky130_fd_sc_hd__buf_2
X__dut__.__uuf__._1084_ __dut__.__uuf__._1084_/A VGND VGND VPWR VPWR __dut__.__uuf__._1084_/X
+ sky130_fd_sc_hd__buf_2
XFILLER_70_537 VGND VGND VPWR VPWR sky130_fd_sc_hd__fill_1
XFILLER_27_269 VGND VGND VPWR VPWR sky130_fd_sc_hd__decap_4
XFILLER_63_39 VGND VGND VPWR VPWR sky130_fd_sc_hd__decap_12
XPHY_927 VGND VPWR sky130_fd_sc_hd__tapvpwrvgnd_1
XPHY_916 VGND VPWR sky130_fd_sc_hd__tapvpwrvgnd_1
XPHY_905 VGND VPWR sky130_fd_sc_hd__tapvpwrvgnd_1
X__dut__.__uuf__._1986_ __dut__.__uuf__._1986_/A VGND VGND VPWR VPWR __dut__._1125_/A2
+ sky130_fd_sc_hd__inv_2
XPHY_949 VGND VPWR sky130_fd_sc_hd__tapvpwrvgnd_1
XPHY_938 VGND VPWR sky130_fd_sc_hd__tapvpwrvgnd_1
XFILLER_23_464 VGND VGND VPWR VPWR sky130_fd_sc_hd__fill_1
XFILLER_12_32 VGND VGND VPWR VPWR sky130_fd_sc_hd__decap_12
XFILLER_6_129 VGND VGND VPWR VPWR sky130_fd_sc_hd__decap_12
X__dut__._0984_ __dut__._0984_/A __dut__._1908_/Q VGND VGND VPWR VPWR __dut__._0984_/X
+ sky130_fd_sc_hd__and2_4
XFILLER_77_147 VGND VGND VPWR VPWR sky130_fd_sc_hd__decap_12
X__dut__._1605_ __dut__._1543_/Y mc[23] __dut__._1604_/X VGND VGND VPWR VPWR __dut__._1605_/X
+ sky130_fd_sc_hd__a21o_4
X__dut__._1536_ rst VGND VGND VPWR VPWR __dut__._1536_/Y sky130_fd_sc_hd__inv_2
XFILLER_92_117 VGND VGND VPWR VPWR sky130_fd_sc_hd__decap_12
XFILLER_37_51 VGND VGND VPWR VPWR sky130_fd_sc_hd__decap_8
X__dut__._1467_ rst VGND VGND VPWR VPWR __dut__._1467_/Y sky130_fd_sc_hd__inv_2
XFILLER_37_62 VGND VGND VPWR VPWR sky130_fd_sc_hd__decap_12
X__dut__._1398_ __dut__._1408_/A __dut__._1398_/B VGND VGND VPWR VPWR __dut__._1398_/X
+ sky130_fd_sc_hd__and2_4
XFILLER_61_548 VGND VGND VPWR VPWR sky130_fd_sc_hd__fill_1
Xclkbuf_4_12_0_tck clkbuf_3_6_0_tck/X VGND VGND VPWR VPWR __dut__._1902_/CLK sky130_fd_sc_hd__clkbuf_1
XFILLER_41_272 VGND VGND VPWR VPWR sky130_fd_sc_hd__fill_1
XANTENNA___dut__._1837__CLK __dut__._1902_/CLK VGND VGND VPWR VPWR sky130_fd_sc_hd__diode_2
X_277_ _313_/CLK _277_/D VGND VGND VPWR VPWR _277_/Q sky130_fd_sc_hd__dfxtp_4
XFILLER_5_184 VGND VGND VPWR VPWR sky130_fd_sc_hd__decap_12
XFILLER_96_434 VGND VGND VPWR VPWR sky130_fd_sc_hd__decap_12
XFILLER_78_80 VGND VGND VPWR VPWR sky130_fd_sc_hd__decap_12
XANTENNA_psn_inst_psn_buff_156_A __dut__._1678_/A VGND VGND VPWR VPWR sky130_fd_sc_hd__diode_2
XANTENNA___dut__._0894__A __dut__._1378_/A VGND VGND VPWR VPWR sky130_fd_sc_hd__diode_2
X__dut__.__uuf__._1840_ __dut__.__uuf__._1883_/A __dut__.__uuf__._1840_/B __dut__.__uuf__._1840_/C
+ VGND VGND VPWR VPWR __dut__._1067_/A2 sky130_fd_sc_hd__and3_4
XFILLER_24_239 VGND VGND VPWR VPWR sky130_fd_sc_hd__decap_12
X__dut__.__uuf__._1771_ __dut__.__uuf__._1936_/A VGND VGND VPWR VPWR __dut__.__uuf__._1771_/X
+ sky130_fd_sc_hd__buf_2
XFILLER_101_211 VGND VGND VPWR VPWR sky130_fd_sc_hd__decap_6
X__dut__.__uuf__._2185_ __dut__.__uuf__._2194_/CLK __dut__._1359_/X __dut__.__uuf__._1130_/X
+ VGND VGND VPWR VPWR prod[45] sky130_fd_sc_hd__dfrtp_4
X__dut__.__uuf__._1205_ __dut__.__uuf__._1249_/A VGND VGND VPWR VPWR __dut__.__uuf__._1205_/X
+ sky130_fd_sc_hd__buf_2
XANTENNA___dut__._1143__A1 __dut__._1647_/A1 VGND VGND VPWR VPWR sky130_fd_sc_hd__diode_2
X__dut__.__uuf__._1136_ __dut__.__uuf__._1124_/X __dut__.__uuf__._1135_/X prod[44]
+ prod[45] __dut__.__uuf__._1131_/X VGND VGND VPWR VPWR __dut__._1357_/A2 sky130_fd_sc_hd__a32o_4
XFILLER_59_147 VGND VGND VPWR VPWR sky130_fd_sc_hd__decap_12
XFILLER_74_117 VGND VGND VPWR VPWR sky130_fd_sc_hd__decap_12
X__dut__.__uuf__._1067_ __dut__.__uuf__._2008_/A VGND VGND VPWR VPWR __dut__.__uuf__._1084_/A
+ sky130_fd_sc_hd__buf_2
XFILLER_74_27 VGND VGND VPWR VPWR sky130_fd_sc_hd__decap_4
X__dut__._1321_ __dut__._1339_/A1 __dut__._1321_/A2 __dut__._1320_/X VGND VGND VPWR
+ VPWR __dut__._1321_/X sky130_fd_sc_hd__a21o_4
X__dut__._1252_ __dut__._1408_/A __dut__._1252_/B VGND VGND VPWR VPWR __dut__._1252_/X
+ sky130_fd_sc_hd__and2_4
XFILLER_70_312 VGND VGND VPWR VPWR sky130_fd_sc_hd__decap_4
XFILLER_55_364 VGND VGND VPWR VPWR sky130_fd_sc_hd__fill_2
X__dut__._1183_ __dut__._1187_/A1 __dut__._1183_/A2 __dut__._1182_/X VGND VGND VPWR
+ VPWR __dut__._1183_/X sky130_fd_sc_hd__a21o_4
XFILLER_43_548 VGND VGND VPWR VPWR sky130_fd_sc_hd__fill_1
XPHY_702 VGND VPWR sky130_fd_sc_hd__tapvpwrvgnd_1
XFILLER_90_15 VGND VGND VPWR VPWR sky130_fd_sc_hd__decap_12
XPHY_713 VGND VPWR sky130_fd_sc_hd__tapvpwrvgnd_1
XPHY_724 VGND VPWR sky130_fd_sc_hd__tapvpwrvgnd_1
XPHY_735 VGND VPWR sky130_fd_sc_hd__tapvpwrvgnd_1
X__dut__.__uuf__._1969_ __dut__.__uuf__._1936_/X __dut__.__uuf__._1968_/B __dut__.__uuf__._1968_/C
+ VGND VGND VPWR VPWR __dut__.__uuf__._1970_/C sky130_fd_sc_hd__o21ai_4
X_200_ _203_/A VGND VGND VPWR VPWR _200_/X sky130_fd_sc_hd__buf_2
XPHY_746 VGND VPWR sky130_fd_sc_hd__tapvpwrvgnd_1
XPHY_757 VGND VPWR sky130_fd_sc_hd__tapvpwrvgnd_1
XPHY_768 VGND VPWR sky130_fd_sc_hd__tapvpwrvgnd_1
X_131_ _309_/Q VGND VGND VPWR VPWR _131_/Y sky130_fd_sc_hd__inv_2
XPHY_779 VGND VPWR sky130_fd_sc_hd__tapvpwrvgnd_1
XFILLER_7_416 VGND VGND VPWR VPWR sky130_fd_sc_hd__fill_1
XFILLER_23_86 VGND VGND VPWR VPWR sky130_fd_sc_hd__decap_12
Xclkbuf_3_1_0_tck clkbuf_3_1_0_tck/A VGND VGND VPWR VPWR clkbuf_4_3_0_tck/A sky130_fd_sc_hd__clkbuf_1
Xpsn_inst_psn_buff_90 psn_inst_psn_buff_9/A VGND VGND VPWR VPWR __dut__._1405_/A1
+ sky130_fd_sc_hd__buf_2
X__dut__._0967_ __dut__._0967_/A1 prod[15] __dut__._0966_/X VGND VGND VPWR VPWR __dut__._1900_/D
+ sky130_fd_sc_hd__a21o_4
XFILLER_2_154 VGND VGND VPWR VPWR sky130_fd_sc_hd__decap_12
X__dut__._0898_ __dut__._1378_/A __dut__._1865_/Q VGND VGND VPWR VPWR __dut__._0898_/X
+ sky130_fd_sc_hd__and2_4
XANTENNA___dut__._1685__A2 mp[9] VGND VGND VPWR VPWR sky130_fd_sc_hd__diode_2
XFILLER_93_415 VGND VGND VPWR VPWR sky130_fd_sc_hd__decap_12
X__dut__._1519_ rst VGND VGND VPWR VPWR __dut__._1519_/Y sky130_fd_sc_hd__inv_2
XFILLER_64_93 VGND VGND VPWR VPWR sky130_fd_sc_hd__decap_12
XANTENNA___dut__._1373__A1 __dut__._1383_/A1 VGND VGND VPWR VPWR sky130_fd_sc_hd__diode_2
XFILLER_6_482 VGND VGND VPWR VPWR sky130_fd_sc_hd__fill_1
XFILLER_50_3 VGND VGND VPWR VPWR sky130_fd_sc_hd__decap_12
XFILLER_69_445 VGND VGND VPWR VPWR sky130_fd_sc_hd__fill_1
XANTENNA___dut__._1125__A1 __dut__._1129_/A1 VGND VGND VPWR VPWR sky130_fd_sc_hd__diode_2
XFILLER_56_117 VGND VGND VPWR VPWR sky130_fd_sc_hd__decap_12
XFILLER_49_191 VGND VGND VPWR VPWR sky130_fd_sc_hd__fill_1
XANTENNA___dut__._1513__A rst VGND VGND VPWR VPWR sky130_fd_sc_hd__diode_2
X__dut__.__uuf__._1823_ __dut__.__uuf__._1823_/A VGND VGND VPWR VPWR __dut__._1065_/A2
+ sky130_fd_sc_hd__inv_2
X__dut__.__uuf__._1754_ __dut__._1601_/X VGND VGND VPWR VPWR __dut__.__uuf__._1760_/B
+ sky130_fd_sc_hd__inv_2
X__dut__.__uuf__._1685_ __dut__.__uuf__._1685_/A VGND VGND VPWR VPWR __dut__.__uuf__._1923_/A
+ sky130_fd_sc_hd__buf_2
X__dut__._1870_ __dut__._1915_/CLK __dut__._1870_/D __dut__._1459_/Y VGND VGND VPWR
+ VPWR __dut__._1870_/Q sky130_fd_sc_hd__dfrtp_4
XFILLER_69_27 VGND VGND VPWR VPWR sky130_fd_sc_hd__decap_12
XANTENNA___dut__.__uuf__._2070__CLK __dut__.__uuf__._2107_/CLK VGND VGND VPWR VPWR
+ sky130_fd_sc_hd__diode_2
XFILLER_87_220 VGND VGND VPWR VPWR sky130_fd_sc_hd__decap_12
XFILLER_85_15 VGND VGND VPWR VPWR sky130_fd_sc_hd__decap_12
XFILLER_85_59 VGND VGND VPWR VPWR sky130_fd_sc_hd__fill_2
X__dut__.__uuf__._2168_ __dut__.__uuf__._2169_/CLK __dut__._1325_/X __dut__.__uuf__._1182_/X
+ VGND VGND VPWR VPWR prod[28] sky130_fd_sc_hd__dfrtp_4
X__dut__.__uuf__._1119_ __dut__.__uuf__._1162_/A VGND VGND VPWR VPWR __dut__.__uuf__._1130_/A
+ sky130_fd_sc_hd__buf_2
X__dut__.__uuf__._2099_ __dut__.__uuf__._2164_/CLK __dut__._1187_/X __dut__.__uuf__._1470_/X
+ VGND VGND VPWR VPWR __dut__._1188_/B sky130_fd_sc_hd__dfrtp_4
XFILLER_90_418 VGND VGND VPWR VPWR sky130_fd_sc_hd__fill_2
XFILLER_28_364 VGND VGND VPWR VPWR sky130_fd_sc_hd__decap_6
X__dut__._1304_ __dut__._1304_/A prod[17] VGND VGND VPWR VPWR __dut__._1304_/X sky130_fd_sc_hd__and2_4
XANTENNA___dut__._1423__A rst VGND VGND VPWR VPWR sky130_fd_sc_hd__diode_2
XANTENNA_psn_inst_psn_buff_57_A psn_inst_psn_buff_9/A VGND VGND VPWR VPWR sky130_fd_sc_hd__diode_2
XFILLER_16_559 VGND VGND VPWR VPWR sky130_fd_sc_hd__fill_1
XPHY_510 VGND VPWR sky130_fd_sc_hd__tapvpwrvgnd_1
X__dut__._1235_ __dut__._1787_/A1 __dut__._1235_/A2 __dut__._1234_/X VGND VGND VPWR
+ VPWR __dut__._1235_/X sky130_fd_sc_hd__a21o_4
XPHY_521 VGND VPWR sky130_fd_sc_hd__tapvpwrvgnd_1
XPHY_532 VGND VPWR sky130_fd_sc_hd__tapvpwrvgnd_1
XPHY_543 VGND VPWR sky130_fd_sc_hd__tapvpwrvgnd_1
X__dut__._1166_ __dut__._1766_/A __dut__._1166_/B VGND VGND VPWR VPWR __dut__._1166_/X
+ sky130_fd_sc_hd__and2_4
XPHY_1131 VGND VPWR sky130_fd_sc_hd__tapvpwrvgnd_1
XPHY_1120 VGND VPWR sky130_fd_sc_hd__tapvpwrvgnd_1
XFILLER_11_220 VGND VGND VPWR VPWR sky130_fd_sc_hd__decap_12
X__dut__._1097_ __dut__._1129_/A1 __dut__._1097_/A2 __dut__._1096_/X VGND VGND VPWR
+ VPWR __dut__._1097_/X sky130_fd_sc_hd__a21o_4
XPHY_554 VGND VPWR sky130_fd_sc_hd__tapvpwrvgnd_1
XPHY_565 VGND VPWR sky130_fd_sc_hd__tapvpwrvgnd_1
XPHY_576 VGND VPWR sky130_fd_sc_hd__tapvpwrvgnd_1
XPHY_587 VGND VPWR sky130_fd_sc_hd__tapvpwrvgnd_1
XPHY_1175 VGND VPWR sky130_fd_sc_hd__tapvpwrvgnd_1
XPHY_1164 VGND VPWR sky130_fd_sc_hd__tapvpwrvgnd_1
XPHY_1153 VGND VPWR sky130_fd_sc_hd__tapvpwrvgnd_1
XPHY_1142 VGND VPWR sky130_fd_sc_hd__tapvpwrvgnd_1
XPHY_598 VGND VPWR sky130_fd_sc_hd__tapvpwrvgnd_1
XPHY_1197 VGND VPWR sky130_fd_sc_hd__tapvpwrvgnd_1
XPHY_1186 VGND VPWR sky130_fd_sc_hd__tapvpwrvgnd_1
XFILLER_7_257 VGND VGND VPWR VPWR sky130_fd_sc_hd__decap_12
XANTENNA___dut__._1355__A1 __dut__._1383_/A1 VGND VGND VPWR VPWR sky130_fd_sc_hd__diode_2
XFILLER_3_485 VGND VGND VPWR VPWR sky130_fd_sc_hd__fill_1
XANTENNA___dut__._1107__A1 __dut__._1129_/A1 VGND VGND VPWR VPWR sky130_fd_sc_hd__diode_2
XFILLER_38_117 VGND VGND VPWR VPWR sky130_fd_sc_hd__decap_12
XFILLER_93_245 VGND VGND VPWR VPWR sky130_fd_sc_hd__decap_12
XFILLER_98_3 VGND VGND VPWR VPWR sky130_fd_sc_hd__decap_12
XANTENNA_psn_inst_psn_buff_119_A __dut__._1678_/A VGND VGND VPWR VPWR sky130_fd_sc_hd__diode_2
XANTENNA___dut__.__uuf__._2093__CLK __dut__.__uuf__._2107_/CLK VGND VGND VPWR VPWR
+ sky130_fd_sc_hd__diode_2
X__dut__.__uuf__._1470_ __dut__.__uuf__._1486_/A VGND VGND VPWR VPWR __dut__.__uuf__._1470_/X
+ sky130_fd_sc_hd__buf_2
XFILLER_69_220 VGND VGND VPWR VPWR sky130_fd_sc_hd__decap_12
XANTENNA___dut__._1508__A rst VGND VGND VPWR VPWR sky130_fd_sc_hd__diode_2
X__dut__.__uuf__._2022_ __dut__.__uuf__._2049_/CLK __dut__._1033_/X __dut__.__uuf__._1640_/X
+ VGND VGND VPWR VPWR __dut__._1034_/B sky130_fd_sc_hd__dfrtp_4
XANTENNA___dut__._1649__A2 mp[1] VGND VGND VPWR VPWR sky130_fd_sc_hd__diode_2
XFILLER_97_584 VGND VGND VPWR VPWR sky130_fd_sc_hd__fill_1
X__dut__._1020_ __dut__._1128_/A __dut__._1020_/B VGND VGND VPWR VPWR __dut__._1020_/X
+ sky130_fd_sc_hd__and2_4
XFILLER_52_186 VGND VGND VPWR VPWR sky130_fd_sc_hd__fill_1
XFILLER_71_39 VGND VGND VPWR VPWR sky130_fd_sc_hd__decap_12
X__dut__.__uuf__._1806_ __dut__.__uuf__._1828_/A __dut__.__uuf__._1806_/B __dut__.__uuf__._1806_/C
+ VGND VGND VPWR VPWR __dut__._1055_/A2 sky130_fd_sc_hd__and3_4
XANTENNA___dut__._1585__A1 __dut__._1543_/Y VGND VGND VPWR VPWR sky130_fd_sc_hd__diode_2
XFILLER_21_562 VGND VGND VPWR VPWR sky130_fd_sc_hd__fill_1
X__dut__.__uuf__._1737_ __dut__.__uuf__._1731_/Y __dut__.__uuf__._1732_/Y __dut__.__uuf__._1731_/Y
+ __dut__.__uuf__._1732_/Y VGND VGND VPWR VPWR __dut__.__uuf__._1738_/C sky130_fd_sc_hd__a2bb2o_4
X__dut__.__uuf__._1668_ __dut__.__uuf__._1868_/A VGND VGND VPWR VPWR __dut__.__uuf__._1692_/A
+ sky130_fd_sc_hd__buf_2
XFILLER_4_227 VGND VGND VPWR VPWR sky130_fd_sc_hd__decap_12
X__dut__._1853_ clkbuf_4_5_0_tck/X __dut__._1853_/D __dut__._1476_/Y VGND VGND VPWR
+ VPWR __dut__._1853_/Q sky130_fd_sc_hd__dfrtp_4
XFILLER_20_32 VGND VGND VPWR VPWR sky130_fd_sc_hd__decap_12
X__dut__.__uuf__._1599_ __dut__.__uuf__._1599_/A VGND VGND VPWR VPWR __dut__.__uuf__._1599_/X
+ sky130_fd_sc_hd__buf_2
XANTENNA___dut__._1418__A rst VGND VGND VPWR VPWR sky130_fd_sc_hd__diode_2
X__dut__._1784_ __dut__._1788_/A __dut__._1850_/Q VGND VGND VPWR VPWR __dut__._1784_/X
+ sky130_fd_sc_hd__and2_4
XFILLER_0_433 VGND VGND VPWR VPWR sky130_fd_sc_hd__fill_1
XFILLER_75_245 VGND VGND VPWR VPWR sky130_fd_sc_hd__decap_12
XFILLER_29_74 VGND VGND VPWR VPWR sky130_fd_sc_hd__decap_12
XFILLER_63_407 VGND VGND VPWR VPWR sky130_fd_sc_hd__fill_1
XFILLER_90_215 VGND VGND VPWR VPWR sky130_fd_sc_hd__decap_12
XFILLER_16_334 VGND VGND VPWR VPWR sky130_fd_sc_hd__fill_2
XFILLER_45_51 VGND VGND VPWR VPWR sky130_fd_sc_hd__decap_8
XFILLER_45_62 VGND VGND VPWR VPWR sky130_fd_sc_hd__decap_12
XFILLER_43_186 VGND VGND VPWR VPWR sky130_fd_sc_hd__fill_1
X__dut__._1218_ __dut__._1786_/A __dut__._1218_/B VGND VGND VPWR VPWR __dut__._1218_/X
+ sky130_fd_sc_hd__and2_4
XPHY_351 VGND VPWR sky130_fd_sc_hd__tapvpwrvgnd_1
XPHY_340 VGND VPWR sky130_fd_sc_hd__tapvpwrvgnd_1
XPHY_373 VGND VPWR sky130_fd_sc_hd__tapvpwrvgnd_1
XPHY_362 VGND VPWR sky130_fd_sc_hd__tapvpwrvgnd_1
XPHY_384 VGND VPWR sky130_fd_sc_hd__tapvpwrvgnd_1
XPHY_395 VGND VPWR sky130_fd_sc_hd__tapvpwrvgnd_1
X__dut__._1149_ __dut__._1151_/A1 __dut__._1149_/A2 __dut__._1148_/X VGND VGND VPWR
+ VPWR __dut__._1149_/X sky130_fd_sc_hd__a21o_4
XFILLER_6_56 VGND VGND VPWR VPWR sky130_fd_sc_hd__decap_12
XFILLER_98_337 VGND VGND VPWR VPWR sky130_fd_sc_hd__decap_12
XANTENNA___dut__._1328__A __dut__._1378_/A VGND VGND VPWR VPWR sky130_fd_sc_hd__diode_2
XFILLER_86_80 VGND VGND VPWR VPWR sky130_fd_sc_hd__decap_12
XFILLER_13_3 VGND VGND VPWR VPWR sky130_fd_sc_hd__decap_12
XFILLER_50_624 VGND VGND VPWR VPWR sky130_fd_sc_hd__fill_1
XFILLER_22_337 VGND VGND VPWR VPWR sky130_fd_sc_hd__decap_4
XANTENNA___dut__._1567__A1 __dut__._1767_/A1 VGND VGND VPWR VPWR sky130_fd_sc_hd__diode_2
X__dut__.__uuf__._1522_ __dut__.__uuf__._1529_/A VGND VGND VPWR VPWR __dut__.__uuf__._1522_/X
+ sky130_fd_sc_hd__buf_2
X__dut__.__uuf__._1453_ __dut__._1769_/X __dut__.__uuf__._1451_/X __dut__._1200_/B
+ __dut__.__uuf__._1452_/X VGND VGND VPWR VPWR __dut__.__uuf__._1453_/X sky130_fd_sc_hd__o22a_4
XFILLER_1_208 VGND VGND VPWR VPWR sky130_fd_sc_hd__decap_12
X__dut__.__uuf__._1384_ __dut__.__uuf__._1393_/A VGND VGND VPWR VPWR __dut__.__uuf__._1384_/X
+ sky130_fd_sc_hd__buf_2
XANTENNA___dut__._1238__A __dut__._1786_/A VGND VGND VPWR VPWR sky130_fd_sc_hd__diode_2
X__dut__.__uuf__._2005_ __dut__.__uuf__._2005_/A __dut__._1138_/B __dut__.__uuf__._2005_/C
+ VGND VGND VPWR VPWR __dut__.__uuf__._2006_/A sky130_fd_sc_hd__or3_4
XFILLER_57_245 VGND VGND VPWR VPWR sky130_fd_sc_hd__decap_12
XFILLER_72_215 VGND VGND VPWR VPWR sky130_fd_sc_hd__decap_12
XFILLER_82_27 VGND VGND VPWR VPWR sky130_fd_sc_hd__decap_4
XFILLER_41_624 VGND VGND VPWR VPWR sky130_fd_sc_hd__fill_1
X__dut__._1003_ __dut__._1339_/A1 prod[33] __dut__._1002_/X VGND VGND VPWR VPWR __dut__._1918_/D
+ sky130_fd_sc_hd__a21o_4
XFILLER_15_98 VGND VGND VPWR VPWR sky130_fd_sc_hd__decap_12
XFILLER_40_178 VGND VGND VPWR VPWR sky130_fd_sc_hd__decap_12
XANTENNA___dut__._1870__CLK __dut__._1915_/CLK VGND VGND VPWR VPWR sky130_fd_sc_hd__diode_2
X__dut__._1905_ clkbuf_4_9_0_tck/X __dut__._1905_/D __dut__._1424_/Y VGND VGND VPWR
+ VPWR __dut__._1905_/Q sky130_fd_sc_hd__dfrtp_4
XFILLER_31_86 VGND VGND VPWR VPWR sky130_fd_sc_hd__decap_12
X__dut__._1836_ __dut__._1902_/CLK __dut__._1836_/D __dut__._1493_/Y VGND VGND VPWR
+ VPWR __dut__._1836_/Q sky130_fd_sc_hd__dfrtp_4
X__dut__._1767_ __dut__._1767_/A1 __dut__._1765_/X __dut__._1766_/X VGND VGND VPWR
+ VPWR __dut__._1845_/D sky130_fd_sc_hd__a21o_4
XFILLER_0_230 VGND VGND VPWR VPWR sky130_fd_sc_hd__decap_12
XFILLER_95_318 VGND VGND VPWR VPWR sky130_fd_sc_hd__decap_12
X__dut__._1698_ __dut__._1766_/A __dut__._1827_/Q VGND VGND VPWR VPWR __dut__._1698_/X
+ sky130_fd_sc_hd__and2_4
XFILLER_48_267 VGND VGND VPWR VPWR sky130_fd_sc_hd__decap_8
XFILLER_32_613 VGND VGND VPWR VPWR sky130_fd_sc_hd__fill_1
XFILLER_71_281 VGND VGND VPWR VPWR sky130_fd_sc_hd__decap_12
XFILLER_31_123 VGND VGND VPWR VPWR sky130_fd_sc_hd__decap_12
XPHY_170 VGND VGND VPWR VPWR sky130_fd_sc_hd__decap_3
XFILLER_72_93 VGND VGND VPWR VPWR sky130_fd_sc_hd__decap_12
XANTENNA__127__A tms VGND VGND VPWR VPWR sky130_fd_sc_hd__diode_2
XPHY_192 VGND VGND VPWR VPWR sky130_fd_sc_hd__decap_3
XPHY_181 VGND VGND VPWR VPWR sky130_fd_sc_hd__decap_3
XANTENNA___dut__._1549__A1 __dut__._1543_/Y VGND VGND VPWR VPWR sky130_fd_sc_hd__diode_2
XANTENNA___dut__.__uuf__._1081__B2 __dut__.__uuf__._1069_/X VGND VGND VPWR VPWR sky130_fd_sc_hd__diode_2
XFILLER_99_624 VGND VGND VPWR VPWR sky130_fd_sc_hd__fill_1
XANTENNA___dut__._1058__A __dut__._1766_/A VGND VGND VPWR VPWR sky130_fd_sc_hd__diode_2
XANTENNA___dut__._1721__A1 __dut__._1543_/Y VGND VGND VPWR VPWR sky130_fd_sc_hd__diode_2
XFILLER_98_178 VGND VGND VPWR VPWR sky130_fd_sc_hd__decap_12
XFILLER_100_117 VGND VGND VPWR VPWR sky130_fd_sc_hd__decap_12
XFILLER_94_373 VGND VGND VPWR VPWR sky130_fd_sc_hd__decap_12
XFILLER_54_215 VGND VGND VPWR VPWR sky130_fd_sc_hd__decap_12
XFILLER_35_440 VGND VGND VPWR VPWR sky130_fd_sc_hd__fill_1
XANTENNA___dut__._1521__A rst VGND VGND VPWR VPWR sky130_fd_sc_hd__diode_2
XANTENNA___dut__._1893__CLK __dut__._1899_/CLK VGND VGND VPWR VPWR sky130_fd_sc_hd__diode_2
XFILLER_22_178 VGND VGND VPWR VPWR sky130_fd_sc_hd__decap_12
X__dut__.__uuf__._1505_ __dut__.__uuf__._1566_/A VGND VGND VPWR VPWR __dut__.__uuf__._1505_/X
+ sky130_fd_sc_hd__buf_2
X__dut__.__uuf__._1436_ __dut__.__uuf__._1442_/A VGND VGND VPWR VPWR __dut__.__uuf__._1436_/X
+ sky130_fd_sc_hd__buf_2
XFILLER_89_123 VGND VGND VPWR VPWR sky130_fd_sc_hd__decap_12
XFILLER_77_27 VGND VGND VPWR VPWR sky130_fd_sc_hd__decap_12
X__dut__._1621_ __dut__._1543_/Y mc[27] __dut__._1620_/X VGND VGND VPWR VPWR __dut__._1621_/X
+ sky130_fd_sc_hd__a21o_4
X__dut__.__uuf__._1367_ __dut__.__uuf__._1367_/A VGND VGND VPWR VPWR __dut__.__uuf__._1367_/X
+ sky130_fd_sc_hd__buf_2
XFILLER_77_318 VGND VGND VPWR VPWR sky130_fd_sc_hd__decap_12
X__dut__._1552_ __dut__._1788_/A __dut__._1792_/Q VGND VGND VPWR VPWR __dut__._1552_/X
+ sky130_fd_sc_hd__and2_4
X__dut__.__uuf__._1298_ __dut__.__uuf__._1401_/A VGND VGND VPWR VPWR __dut__.__uuf__._1324_/A
+ sky130_fd_sc_hd__buf_2
XFILLER_93_15 VGND VGND VPWR VPWR sky130_fd_sc_hd__decap_12
Xclkbuf_3_6_0___dut__.__uuf__.__clk_source__ clkbuf_3_7_0___dut__.__uuf__.__clk_source__/A
+ VGND VGND VPWR VPWR clkbuf_3_6_0___dut__.__uuf__.__clk_source__/X sky130_fd_sc_hd__clkbuf_1
X__dut__._1483_ rst VGND VGND VPWR VPWR __dut__._1483_/Y sky130_fd_sc_hd__inv_2
XFILLER_93_59 VGND VGND VPWR VPWR sky130_fd_sc_hd__fill_2
XFILLER_45_248 VGND VGND VPWR VPWR sky130_fd_sc_hd__decap_3
XFILLER_13_123 VGND VGND VPWR VPWR sky130_fd_sc_hd__decap_12
XFILLER_41_421 VGND VGND VPWR VPWR sky130_fd_sc_hd__fill_2
XFILLER_41_432 VGND VGND VPWR VPWR sky130_fd_sc_hd__fill_1
XFILLER_53_281 VGND VGND VPWR VPWR sky130_fd_sc_hd__decap_8
XANTENNA___dut__._1431__A rst VGND VGND VPWR VPWR sky130_fd_sc_hd__diode_2
X_293_ _306_/CLK _293_/D trst VGND VGND VPWR VPWR _293_/Q sky130_fd_sc_hd__dfrtp_4
XFILLER_5_322 VGND VGND VPWR VPWR sky130_fd_sc_hd__decap_4
X__dut__._1819_ clkbuf_4_6_0_tck/X __dut__._1819_/D __dut__._1510_/Y VGND VGND VPWR
+ VPWR __dut__._1819_/Q sky130_fd_sc_hd__dfrtp_4
XFILLER_95_159 VGND VGND VPWR VPWR sky130_fd_sc_hd__decap_12
XANTENNA___dut__._1606__A __dut__._1766_/A VGND VGND VPWR VPWR sky130_fd_sc_hd__diode_2
XFILLER_36_215 VGND VGND VPWR VPWR sky130_fd_sc_hd__decap_12
XANTENNA___dut__.__uuf__._1238__A __dut__.__uuf__._1450_/A VGND VGND VPWR VPWR sky130_fd_sc_hd__diode_2
XFILLER_91_354 VGND VGND VPWR VPWR sky130_fd_sc_hd__decap_12
XFILLER_80_3 VGND VGND VPWR VPWR sky130_fd_sc_hd__decap_12
XANTENNA_psn_inst_psn_buff_101_A __dut__._1678_/A VGND VGND VPWR VPWR sky130_fd_sc_hd__diode_2
XFILLER_32_476 VGND VGND VPWR VPWR sky130_fd_sc_hd__decap_8
X__dut__.__uuf__._1221_ __dut__.__uuf__._1236_/A VGND VGND VPWR VPWR __dut__.__uuf__._1233_/A
+ sky130_fd_sc_hd__buf_2
XFILLER_101_404 VGND VGND VPWR VPWR sky130_fd_sc_hd__decap_12
X__dut__.__uuf__._1152_ __dut__.__uuf__._1226_/A VGND VGND VPWR VPWR __dut__.__uuf__._1212_/A
+ sky130_fd_sc_hd__buf_2
XFILLER_101_459 VGND VGND VPWR VPWR sky130_fd_sc_hd__decap_6
X__dut__.__uuf__._1083_ __dut__.__uuf__._1075_/X __dut__.__uuf__._2003_/A prod[61]
+ prod[62] __dut__.__uuf__._1069_/X VGND VGND VPWR VPWR __dut__._1391_/A2 sky130_fd_sc_hd__a32o_4
XANTENNA___dut__._1516__A rst VGND VGND VPWR VPWR sky130_fd_sc_hd__diode_2
XFILLER_82_398 VGND VGND VPWR VPWR sky130_fd_sc_hd__decap_12
XPHY_917 VGND VPWR sky130_fd_sc_hd__tapvpwrvgnd_1
XPHY_906 VGND VPWR sky130_fd_sc_hd__tapvpwrvgnd_1
X__dut__.__uuf__._1985_ __dut__.__uuf__._1981_/Y __dut__.__uuf__._1982_/Y __dut__.__uuf__._1941_/X
+ __dut__.__uuf__._1984_/X VGND VGND VPWR VPWR __dut__.__uuf__._1986_/A sky130_fd_sc_hd__a211o_4
XFILLER_42_229 VGND VGND VPWR VPWR sky130_fd_sc_hd__decap_12
XPHY_939 VGND VPWR sky130_fd_sc_hd__tapvpwrvgnd_1
XPHY_928 VGND VPWR sky130_fd_sc_hd__tapvpwrvgnd_1
XANTENNA__308__CLK _314_/CLK VGND VGND VPWR VPWR sky130_fd_sc_hd__diode_2
XFILLER_12_44 VGND VGND VPWR VPWR sky130_fd_sc_hd__decap_12
X__dut__._0983_ __dut__._0983_/A1 prod[23] __dut__._0982_/X VGND VGND VPWR VPWR __dut__._1908_/D
+ sky130_fd_sc_hd__a21o_4