* NGSPICE file created from user_proj_top.ext - technology: sky130A

* Black-box entry subcircuit for sky130_fd_sc_hd__decap_12 abstract view
.subckt sky130_fd_sc_hd__decap_12 VGND VNB VPB VPWR
.ends

* Black-box entry subcircuit for sky130_fd_sc_hd__fill_1 abstract view
.subckt sky130_fd_sc_hd__fill_1 VGND VNB VPB VPWR
.ends

* Black-box entry subcircuit for sky130_fd_sc_hd__tapvpwrvgnd_1 abstract view
.subckt sky130_fd_sc_hd__tapvpwrvgnd_1 VGND VPWR
.ends

* Black-box entry subcircuit for sky130_fd_sc_hd__buf_2 abstract view
.subckt sky130_fd_sc_hd__buf_2 A VGND VNB VPB VPWR X
.ends

* Black-box entry subcircuit for sky130_fd_sc_hd__dfrtp_4 abstract view
.subckt sky130_fd_sc_hd__dfrtp_4 CLK D RESET_B VGND VNB VPB VPWR Q
.ends

* Black-box entry subcircuit for sky130_fd_sc_hd__inv_2 abstract view
.subckt sky130_fd_sc_hd__inv_2 A VGND VNB VPB VPWR Y
.ends

* Black-box entry subcircuit for sky130_fd_sc_hd__diode_2 abstract view
.subckt sky130_fd_sc_hd__diode_2 DIODE VGND VNB VPB VPWR
.ends

* Black-box entry subcircuit for sky130_fd_sc_hd__a21o_4 abstract view
.subckt sky130_fd_sc_hd__a21o_4 A1 A2 B1 VGND VNB VPB VPWR X
.ends

* Black-box entry subcircuit for sky130_fd_sc_hd__fill_2 abstract view
.subckt sky130_fd_sc_hd__fill_2 VGND VNB VPB VPWR
.ends

* Black-box entry subcircuit for sky130_fd_sc_hd__and2_4 abstract view
.subckt sky130_fd_sc_hd__and2_4 A B VGND VNB VPB VPWR X
.ends

* Black-box entry subcircuit for sky130_fd_sc_hd__clkbuf_1 abstract view
.subckt sky130_fd_sc_hd__clkbuf_1 A VGND VNB VPB VPWR X
.ends

* Black-box entry subcircuit for sky130_fd_sc_hd__a2bb2o_4 abstract view
.subckt sky130_fd_sc_hd__a2bb2o_4 A1_N A2_N B1 B2 VGND VNB VPB VPWR X
.ends

* Black-box entry subcircuit for sky130_fd_sc_hd__clkbuf_16 abstract view
.subckt sky130_fd_sc_hd__clkbuf_16 A VGND VNB VPB VPWR X
.ends

* Black-box entry subcircuit for sky130_fd_sc_hd__decap_8 abstract view
.subckt sky130_fd_sc_hd__decap_8 VGND VNB VPB VPWR
.ends

* Black-box entry subcircuit for sky130_fd_sc_hd__decap_3 abstract view
.subckt sky130_fd_sc_hd__decap_3 VGND VNB VPB VPWR
.ends

* Black-box entry subcircuit for sky130_fd_sc_hd__decap_4 abstract view
.subckt sky130_fd_sc_hd__decap_4 VGND VNB VPB VPWR
.ends

* Black-box entry subcircuit for sky130_fd_sc_hd__a32o_4 abstract view
.subckt sky130_fd_sc_hd__a32o_4 A1 A2 A3 B1 B2 VGND VNB VPB VPWR X
.ends

* Black-box entry subcircuit for sky130_fd_sc_hd__dfxtp_4 abstract view
.subckt sky130_fd_sc_hd__dfxtp_4 CLK D VGND VNB VPB VPWR Q
.ends

* Black-box entry subcircuit for sky130_fd_sc_hd__decap_6 abstract view
.subckt sky130_fd_sc_hd__decap_6 VGND VNB VPB VPWR
.ends

* Black-box entry subcircuit for sky130_fd_sc_hd__conb_1 abstract view
.subckt sky130_fd_sc_hd__conb_1 VGND VNB VPB VPWR HI LO
.ends

* Black-box entry subcircuit for sky130_fd_sc_hd__nor2_4 abstract view
.subckt sky130_fd_sc_hd__nor2_4 A B VGND VNB VPB VPWR Y
.ends

* Black-box entry subcircuit for sky130_fd_sc_hd__or3_4 abstract view
.subckt sky130_fd_sc_hd__or3_4 A B C VGND VNB VPB VPWR X
.ends

* Black-box entry subcircuit for sky130_fd_sc_hd__o22a_4 abstract view
.subckt sky130_fd_sc_hd__o22a_4 A1 A2 B1 B2 VGND VNB VPB VPWR X
.ends

* Black-box entry subcircuit for sky130_fd_sc_hd__o21a_4 abstract view
.subckt sky130_fd_sc_hd__o21a_4 A1 A2 B1 VGND VNB VPB VPWR X
.ends

* Black-box entry subcircuit for sky130_fd_sc_hd__buf_4 abstract view
.subckt sky130_fd_sc_hd__buf_4 A VGND VNB VPB VPWR X
.ends

* Black-box entry subcircuit for sky130_fd_sc_hd__o21ai_4 abstract view
.subckt sky130_fd_sc_hd__o21ai_4 A1 A2 B1 VGND VNB VPB VPWR Y
.ends

* Black-box entry subcircuit for sky130_fd_sc_hd__or4_4 abstract view
.subckt sky130_fd_sc_hd__or4_4 A B C D VGND VNB VPB VPWR X
.ends

* Black-box entry subcircuit for sky130_fd_sc_hd__buf_8 abstract view
.subckt sky130_fd_sc_hd__buf_8 A VGND VNB VPB VPWR X
.ends

* Black-box entry subcircuit for sky130_fd_sc_hd__or2_4 abstract view
.subckt sky130_fd_sc_hd__or2_4 A B VGND VNB VPB VPWR X
.ends

* Black-box entry subcircuit for sky130_fd_sc_hd__and4_4 abstract view
.subckt sky130_fd_sc_hd__and4_4 A B C D VGND VNB VPB VPWR X
.ends

* Black-box entry subcircuit for sky130_fd_sc_hd__dfstp_4 abstract view
.subckt sky130_fd_sc_hd__dfstp_4 CLK D SET_B VGND VNB VPB VPWR Q
.ends

* Black-box entry subcircuit for sky130_fd_sc_hd__o32a_4 abstract view
.subckt sky130_fd_sc_hd__o32a_4 A1 A2 A3 B1 B2 VGND VNB VPB VPWR X
.ends

* Black-box entry subcircuit for sky130_fd_sc_hd__inv_4 abstract view
.subckt sky130_fd_sc_hd__inv_4 A VGND VNB VPB VPWR Y
.ends

* Black-box entry subcircuit for sky130_fd_sc_hd__a211o_4 abstract view
.subckt sky130_fd_sc_hd__a211o_4 A1 A2 B1 C1 VGND VNB VPB VPWR X
.ends

* Black-box entry subcircuit for sky130_fd_sc_hd__inv_8 abstract view
.subckt sky130_fd_sc_hd__inv_8 A VGND VNB VPB VPWR Y
.ends

* Black-box entry subcircuit for sky130_fd_sc_hd__a21boi_4 abstract view
.subckt sky130_fd_sc_hd__a21boi_4 A1 A2 B1_N VGND VNB VPB VPWR Y
.ends

* Black-box entry subcircuit for sky130_fd_sc_hd__nand2_4 abstract view
.subckt sky130_fd_sc_hd__nand2_4 A B VGND VNB VPB VPWR Y
.ends

.subckt user_proj_top clk done mc[0] mc[10] mc[11] mc[12] mc[13] mc[14] mc[15] mc[16]
+ mc[17] mc[18] mc[19] mc[1] mc[20] mc[21] mc[22] mc[23] mc[24] mc[25] mc[26] mc[27]
+ mc[28] mc[29] mc[2] mc[30] mc[31] mc[3] mc[4] mc[5] mc[6] mc[7] mc[8] mc[9] mp[0]
+ mp[10] mp[11] mp[12] mp[13] mp[14] mp[15] mp[16] mp[17] mp[18] mp[19] mp[1] mp[20]
+ mp[21] mp[22] mp[23] mp[24] mp[25] mp[26] mp[27] mp[28] mp[29] mp[2] mp[30] mp[31]
+ mp[3] mp[4] mp[5] mp[6] mp[7] mp[8] mp[9] prod[0] prod[10] prod[11] prod[12] prod[13]
+ prod[14] prod[15] prod[16] prod[17] prod[18] prod[19] prod[1] prod[20] prod[21]
+ prod[22] prod[23] prod[24] prod[25] prod[26] prod[27] prod[28] prod[29] prod[2]
+ prod[30] prod[31] prod[3] prod[4] prod[5] prod[6] prod[7] prod[8] prod[9] prod_sel
+ rst start tck tdi tdo tdo_paden_o tie[0] tie[100] tie[101] tie[102] tie[103] tie[104]
+ tie[105] tie[106] tie[107] tie[108] tie[109] tie[10] tie[110] tie[111] tie[112]
+ tie[113] tie[114] tie[115] tie[116] tie[117] tie[118] tie[119] tie[11] tie[120]
+ tie[121] tie[122] tie[123] tie[124] tie[125] tie[126] tie[127] tie[128] tie[129]
+ tie[12] tie[130] tie[131] tie[132] tie[133] tie[134] tie[135] tie[136] tie[137]
+ tie[138] tie[139] tie[13] tie[140] tie[141] tie[142] tie[143] tie[144] tie[145]
+ tie[146] tie[147] tie[148] tie[149] tie[14] tie[150] tie[151] tie[152] tie[153]
+ tie[154] tie[155] tie[156] tie[157] tie[158] tie[159] tie[15] tie[160] tie[161]
+ tie[162] tie[163] tie[164] tie[165] tie[166] tie[167] tie[168] tie[169] tie[16]
+ tie[17] tie[18] tie[19] tie[1] tie[20] tie[21] tie[22] tie[23] tie[24] tie[25] tie[26]
+ tie[27] tie[28] tie[29] tie[2] tie[30] tie[31] tie[32] tie[33] tie[34] tie[35] tie[36]
+ tie[37] tie[38] tie[39] tie[3] tie[40] tie[41] tie[42] tie[43] tie[44] tie[45] tie[46]
+ tie[47] tie[48] tie[49] tie[4] tie[50] tie[51] tie[52] tie[53] tie[54] tie[55] tie[56]
+ tie[57] tie[58] tie[59] tie[5] tie[60] tie[61] tie[62] tie[63] tie[64] tie[65] tie[66]
+ tie[67] tie[68] tie[69] tie[6] tie[70] tie[71] tie[72] tie[73] tie[74] tie[75] tie[76]
+ tie[77] tie[78] tie[79] tie[7] tie[80] tie[81] tie[82] tie[83] tie[84] tie[85] tie[86]
+ tie[87] tie[88] tie[89] tie[8] tie[90] tie[91] tie[92] tie[93] tie[94] tie[95] tie[96]
+ tie[97] tie[98] tie[99] tie[9] tms trst VPWR VGND
XFILLER_79_391 VGND VGND VPWR VPWR sky130_fd_sc_hd__decap_12
XFILLER_39_233 VGND VGND VPWR VPWR sky130_fd_sc_hd__fill_1
XFILLER_94_361 VGND VGND VPWR VPWR sky130_fd_sc_hd__decap_12
XFILLER_67_586 VGND VGND VPWR VPWR sky130_fd_sc_hd__decap_12
XFILLER_39_266 VGND VGND VPWR VPWR sky130_fd_sc_hd__fill_1
XFILLER_82_556 VGND VGND VPWR VPWR sky130_fd_sc_hd__decap_12
XPHY_2408 VGND VPWR sky130_fd_sc_hd__tapvpwrvgnd_1
XFILLER_35_461 VGND VGND VPWR VPWR sky130_fd_sc_hd__decap_12
XPHY_2419 VGND VPWR sky130_fd_sc_hd__tapvpwrvgnd_1
XPHY_1707 VGND VPWR sky130_fd_sc_hd__tapvpwrvgnd_1
XPHY_1729 VGND VPWR sky130_fd_sc_hd__tapvpwrvgnd_1
XPHY_1718 VGND VPWR sky130_fd_sc_hd__tapvpwrvgnd_1
XFILLER_10_317 VGND VGND VPWR VPWR sky130_fd_sc_hd__fill_1
XFILLER_148_385 VGND VGND VPWR VPWR sky130_fd_sc_hd__decap_12
XFILLER_108_227 VGND VGND VPWR VPWR sky130_fd_sc_hd__decap_12
X__dut__.__uuf__._1506_ __dut__.__uuf__._1548_/A VGND VGND VPWR VPWR __dut__.__uuf__._1506_/X
+ sky130_fd_sc_hd__buf_2
XFILLER_123_208 VGND VGND VPWR VPWR sky130_fd_sc_hd__decap_12
X__dut__._2740_ __dut__._2894_/CLK __dut__._2740_/D __dut__._2512_/Y VGND VGND VPWR
+ VPWR __dut__._2740_/Q sky130_fd_sc_hd__dfrtp_4
XFILLER_117_794 VGND VGND VPWR VPWR sky130_fd_sc_hd__decap_12
XFILLER_117_22 VGND VGND VPWR VPWR sky130_fd_sc_hd__decap_12
XFILLER_104_422 VGND VGND VPWR VPWR sky130_fd_sc_hd__decap_12
X__dut__._2671_ __dut__._2357_/B __dut__._2671_/D __dut__._2581_/Y VGND VGND VPWR
+ VPWR __dut__._2671_/Q sky130_fd_sc_hd__dfrtp_4
X__dut__.__uuf__._1437_ __dut__._2155_/B VGND VGND VPWR VPWR __dut__.__uuf__._1437_/Y
+ sky130_fd_sc_hd__inv_2
XANTENNA___dut__._2071__A __dut__._2087_/A VGND VGND VPWR VPWR sky130_fd_sc_hd__diode_2
XFILLER_132_764 VGND VGND VPWR VPWR sky130_fd_sc_hd__decap_12
XFILLER_77_15 VGND VGND VPWR VPWR sky130_fd_sc_hd__decap_12
X__dut__._1622_ __dut__._1658_/A1 tie[38] __dut__._1621_/X VGND VGND VPWR VPWR __dut__._2730_/D
+ sky130_fd_sc_hd__a21o_4
X__dut__.__uuf__._1368_ __dut__._2183_/B VGND VGND VPWR VPWR __dut__.__uuf__._1368_/Y
+ sky130_fd_sc_hd__inv_2
XFILLER_77_59 VGND VGND VPWR VPWR sky130_fd_sc_hd__fill_2
XFILLER_133_32 VGND VGND VPWR VPWR sky130_fd_sc_hd__decap_12
XFILLER_58_520 VGND VGND VPWR VPWR sky130_fd_sc_hd__decap_12
X__dut__._1553_ __dut__._1555_/A __dut__._2695_/Q VGND VGND VPWR VPWR __dut__._1553_/X
+ sky130_fd_sc_hd__and2_4
Xclkbuf_4_14_0___dut__.__uuf__.__clk_source__ clkbuf_3_7_0___dut__.__uuf__.__clk_source__/X
+ VGND VGND VPWR VPWR __dut__.__uuf__._2417_/CLK sky130_fd_sc_hd__clkbuf_1
X__dut__.__uuf__._1299_ __dut__.__uuf__._1286_/X __dut__.__uuf__._1297_/X __dut__._2207_/B
+ __dut__.__uuf__._1298_/X VGND VGND VPWR VPWR __dut__._2206_/A2 sky130_fd_sc_hd__a2bb2o_4
Xclkbuf_opt_1_tck clkbuf_opt_1_tck/A VGND VGND VPWR VPWR clkbuf_opt_1_tck/X sky130_fd_sc_hd__clkbuf_16
XFILLER_73_501 VGND VGND VPWR VPWR sky130_fd_sc_hd__decap_12
XFILLER_46_715 VGND VGND VPWR VPWR sky130_fd_sc_hd__decap_8
X__dut__._1484_ __dut__._1282_/Y mp[23] __dut__._1483_/X VGND VGND VPWR VPWR __dut__._1484_/X
+ sky130_fd_sc_hd__a21o_4
XFILLER_133_98 VGND VGND VPWR VPWR sky130_fd_sc_hd__decap_12
XFILLER_45_225 VGND VGND VPWR VPWR sky130_fd_sc_hd__fill_1
XANTENNA___dut__._1415__A _234_/Y VGND VGND VPWR VPWR sky130_fd_sc_hd__diode_2
XFILLER_61_729 VGND VGND VPWR VPWR sky130_fd_sc_hd__decap_3
XFILLER_26_461 VGND VGND VPWR VPWR sky130_fd_sc_hd__fill_1
XFILLER_60_239 VGND VGND VPWR VPWR sky130_fd_sc_hd__decap_12
X__dut__._2105_ __dut__._2105_/A __dut__._2105_/B VGND VGND VPWR VPWR __dut__._2105_/X
+ sky130_fd_sc_hd__and2_4
X__dut__._2036_ __dut__._2046_/A1 __dut__._2036_/A2 __dut__._2035_/X VGND VGND VPWR
+ VPWR __dut__._2036_/X sky130_fd_sc_hd__a21o_4
XFILLER_139_330 VGND VGND VPWR VPWR sky130_fd_sc_hd__decap_12
X_294_ _307_/CLK _294_/D trst VGND VGND VPWR VPWR _294_/Q sky130_fd_sc_hd__dfrtp_4
XFILLER_127_525 VGND VGND VPWR VPWR sky130_fd_sc_hd__decap_12
XFILLER_154_377 VGND VGND VPWR VPWR sky130_fd_sc_hd__decap_12
XFILLER_123_720 VGND VGND VPWR VPWR sky130_fd_sc_hd__decap_12
XFILLER_107_293 VGND VGND VPWR VPWR sky130_fd_sc_hd__decap_12
XFILLER_69_818 VGND VGND VPWR VPWR sky130_fd_sc_hd__fill_1
X__dut__._2869_ __dut__._2872_/CLK __dut__._2869_/D __dut__._2383_/Y VGND VGND VPWR
+ VPWR __dut__._2869_/Q sky130_fd_sc_hd__dfrtp_4
XFILLER_122_263 VGND VGND VPWR VPWR sky130_fd_sc_hd__decap_12
XFILLER_95_147 VGND VGND VPWR VPWR sky130_fd_sc_hd__decap_12
XFILLER_76_361 VGND VGND VPWR VPWR sky130_fd_sc_hd__decap_12
XFILLER_49_586 VGND VGND VPWR VPWR sky130_fd_sc_hd__decap_12
XFILLER_91_342 VGND VGND VPWR VPWR sky130_fd_sc_hd__decap_12
XFILLER_64_556 VGND VGND VPWR VPWR sky130_fd_sc_hd__decap_12
XFILLER_60_751 VGND VGND VPWR VPWR sky130_fd_sc_hd__decap_4
XFILLER_60_762 VGND VGND VPWR VPWR sky130_fd_sc_hd__fill_1
XANTENNA_psn_inst_psn_buff_206_A __dut__._2341_/A VGND VGND VPWR VPWR sky130_fd_sc_hd__diode_2
XFILLER_146_812 VGND VGND VPWR VPWR sky130_fd_sc_hd__decap_12
XANTENNA___dut__._1995__A __dut__._2087_/A VGND VGND VPWR VPWR sky130_fd_sc_hd__diode_2
XANTENNA___dut__.__uuf__._2352__CLK __dut__.__uuf__._2355_/CLK VGND VGND VPWR VPWR
+ sky130_fd_sc_hd__diode_2
XFILLER_105_208 VGND VGND VPWR VPWR sky130_fd_sc_hd__decap_12
X__dut__.__uuf__._2340_ __dut__.__uuf__._2355_/CLK __dut__._2184_/X __dut__.__uuf__._1356_/X
+ VGND VGND VPWR VPWR __dut__._2185_/B sky130_fd_sc_hd__dfrtp_4
X__dut__.__uuf__._2271_ __dut__.__uuf__._2278_/CLK __dut__._2046_/X __dut__.__uuf__._1605_/X
+ VGND VGND VPWR VPWR __dut__._2047_/B sky130_fd_sc_hd__dfrtp_4
XFILLER_141_550 VGND VGND VPWR VPWR sky130_fd_sc_hd__decap_12
XFILLER_114_764 VGND VGND VPWR VPWR sky130_fd_sc_hd__decap_12
X__dut__.__uuf__._1222_ __dut__.__uuf__._1221_/X __dut__.__uuf__._1218_/X __dut__._2237_/B
+ __dut__._2239_/B __dut__.__uuf__._1215_/X VGND VGND VPWR VPWR __dut__._2236_/A2
+ sky130_fd_sc_hd__a32o_4
XFILLER_101_403 VGND VGND VPWR VPWR sky130_fd_sc_hd__decap_12
XFILLER_99_464 VGND VGND VPWR VPWR sky130_fd_sc_hd__decap_12
XFILLER_59_306 VGND VGND VPWR VPWR sky130_fd_sc_hd__decap_12
XFILLER_87_659 VGND VGND VPWR VPWR sky130_fd_sc_hd__decap_12
X__dut__.__uuf__._1153_ __dut__.__uuf__._1147_/X __dut__.__uuf__._1144_/X __dut__._2283_/B
+ __dut__._2285_/B __dut__.__uuf__._1141_/X VGND VGND VPWR VPWR __dut__._2282_/A2
+ sky130_fd_sc_hd__a32o_4
XFILLER_55_501 VGND VGND VPWR VPWR sky130_fd_sc_hd__decap_12
X__dut__.__uuf__._1084_ __dut__.__uuf__._1114_/A VGND VGND VPWR VPWR __dut__.__uuf__._1084_/X
+ sky130_fd_sc_hd__buf_2
XFILLER_103_13 VGND VGND VPWR VPWR sky130_fd_sc_hd__decap_12
XFILLER_103_57 VGND VGND VPWR VPWR sky130_fd_sc_hd__fill_1
XPHY_2216 VGND VPWR sky130_fd_sc_hd__tapvpwrvgnd_1
XPHY_2205 VGND VPWR sky130_fd_sc_hd__tapvpwrvgnd_1
XPHY_927 VGND VPWR sky130_fd_sc_hd__tapvpwrvgnd_1
XPHY_916 VGND VPWR sky130_fd_sc_hd__tapvpwrvgnd_1
X__dut__.__uuf__._1986_ __dut__.__uuf__._1986_/A VGND VGND VPWR VPWR __dut__._2060_/A2
+ sky130_fd_sc_hd__inv_2
XPHY_905 VGND VPWR sky130_fd_sc_hd__tapvpwrvgnd_1
XPHY_2249 VGND VPWR sky130_fd_sc_hd__tapvpwrvgnd_1
XPHY_2238 VGND VPWR sky130_fd_sc_hd__tapvpwrvgnd_1
XPHY_2227 VGND VPWR sky130_fd_sc_hd__tapvpwrvgnd_1
XPHY_1515 VGND VPWR sky130_fd_sc_hd__tapvpwrvgnd_1
XPHY_1504 VGND VPWR sky130_fd_sc_hd__tapvpwrvgnd_1
XPHY_949 VGND VPWR sky130_fd_sc_hd__tapvpwrvgnd_1
XPHY_938 VGND VPWR sky130_fd_sc_hd__tapvpwrvgnd_1
XPHY_1548 VGND VPWR sky130_fd_sc_hd__tapvpwrvgnd_1
XPHY_1537 VGND VPWR sky130_fd_sc_hd__tapvpwrvgnd_1
XPHY_1526 VGND VPWR sky130_fd_sc_hd__tapvpwrvgnd_1
XFILLER_149_672 VGND VGND VPWR VPWR sky130_fd_sc_hd__decap_12
XFILLER_136_300 VGND VGND VPWR VPWR sky130_fd_sc_hd__decap_12
XPHY_1559 VGND VPWR sky130_fd_sc_hd__tapvpwrvgnd_1
XFILLER_12_10 VGND VGND VPWR VPWR sky130_fd_sc_hd__decap_4
XFILLER_109_525 VGND VGND VPWR VPWR sky130_fd_sc_hd__decap_12
XFILLER_128_32 VGND VGND VPWR VPWR sky130_fd_sc_hd__decap_12
XFILLER_105_720 VGND VGND VPWR VPWR sky130_fd_sc_hd__decap_12
X__dut__._2723_ __dut__._2723_/CLK __dut__._2723_/D __dut__._2529_/Y VGND VGND VPWR
+ VPWR __dut__._2723_/Q sky130_fd_sc_hd__dfrtp_4
XFILLER_144_20 VGND VGND VPWR VPWR sky130_fd_sc_hd__decap_8
XFILLER_104_263 VGND VGND VPWR VPWR sky130_fd_sc_hd__decap_12
X__dut__._2654_ __dut__._2654_/CLK __dut__._2654_/D __dut__._2598_/Y VGND VGND VPWR
+ VPWR __dut__._2654_/Q sky130_fd_sc_hd__dfrtp_4
XFILLER_77_147 VGND VGND VPWR VPWR sky130_fd_sc_hd__decap_12
X__dut__._2585_ rst VGND VGND VPWR VPWR __dut__._2585_/Y sky130_fd_sc_hd__inv_2
X__dut__._1605_ __dut__._1793_/A __dut__._2721_/Q VGND VGND VPWR VPWR __dut__._1605_/X
+ sky130_fd_sc_hd__and2_4
XANTENNA_psn_inst_psn_buff_94_A __dut__._2070_/A1 VGND VGND VPWR VPWR sky130_fd_sc_hd__diode_2
X__dut__._1536_ __dut__._1282_/Y mc[7] __dut__._1535_/X VGND VGND VPWR VPWR __dut__._1536_/X
+ sky130_fd_sc_hd__a21o_4
XFILLER_92_117 VGND VGND VPWR VPWR sky130_fd_sc_hd__decap_12
XFILLER_58_361 VGND VGND VPWR VPWR sky130_fd_sc_hd__decap_12
XFILLER_37_51 VGND VGND VPWR VPWR sky130_fd_sc_hd__decap_8
XANTENNA___dut__._1464__A2 mp[18] VGND VGND VPWR VPWR sky130_fd_sc_hd__diode_2
X__dut__._1467_ _234_/Y __dut__._2673_/Q VGND VGND VPWR VPWR __dut__._1467_/X sky130_fd_sc_hd__and2_4
XFILLER_37_62 VGND VGND VPWR VPWR sky130_fd_sc_hd__decap_12
XFILLER_73_364 VGND VGND VPWR VPWR sky130_fd_sc_hd__fill_2
X__dut__._1398_ __dut__._1434_/A1 __dut__._1396_/X __dut__._1397_/X VGND VGND VPWR
+ VPWR __dut__._2655_/D sky130_fd_sc_hd__a21o_4
XANTENNA___dut__.__uuf__._2225__CLK __dut__.__uuf__._2402_/CLK VGND VGND VPWR VPWR
+ sky130_fd_sc_hd__diode_2
XFILLER_27_770 VGND VGND VPWR VPWR sky130_fd_sc_hd__fill_1
XFILLER_61_537 VGND VGND VPWR VPWR sky130_fd_sc_hd__decap_12
Xclkbuf_4_12_0_tck clkbuf_3_6_0_tck/X VGND VGND VPWR VPWR clkbuf_5_25_0_tck/A sky130_fd_sc_hd__clkbuf_1
XFILLER_42_751 VGND VGND VPWR VPWR sky130_fd_sc_hd__decap_4
XFILLER_128_812 VGND VGND VPWR VPWR sky130_fd_sc_hd__decap_12
X__dut__._2019_ __dut__._2029_/A __dut__._2019_/B VGND VGND VPWR VPWR __dut__._2019_/X
+ sky130_fd_sc_hd__and2_4
XFILLER_41_294 VGND VGND VPWR VPWR sky130_fd_sc_hd__fill_1
XFILLER_139_171 VGND VGND VPWR VPWR sky130_fd_sc_hd__decap_12
X_277_ _277_/CLK _277_/D VGND VGND VPWR VPWR _277_/Q sky130_fd_sc_hd__dfxtp_4
XFILLER_143_826 VGND VGND VPWR VPWR sky130_fd_sc_hd__fill_2
XFILLER_123_550 VGND VGND VPWR VPWR sky130_fd_sc_hd__decap_12
XFILLER_111_745 VGND VGND VPWR VPWR sky130_fd_sc_hd__decap_12
XFILLER_96_434 VGND VGND VPWR VPWR sky130_fd_sc_hd__decap_12
XFILLER_78_80 VGND VGND VPWR VPWR sky130_fd_sc_hd__decap_12
XFILLER_69_659 VGND VGND VPWR VPWR sky130_fd_sc_hd__decap_12
XANTENNA_psn_inst_psn_buff_156_A __dut__._2070_/A1 VGND VGND VPWR VPWR sky130_fd_sc_hd__diode_2
XFILLER_84_629 VGND VGND VPWR VPWR sky130_fd_sc_hd__decap_12
XFILLER_1_390 VGND VGND VPWR VPWR sky130_fd_sc_hd__fill_1
XFILLER_110_288 VGND VGND VPWR VPWR sky130_fd_sc_hd__decap_12
XFILLER_18_781 VGND VGND VPWR VPWR sky130_fd_sc_hd__fill_2
XFILLER_25_729 VGND VGND VPWR VPWR sky130_fd_sc_hd__decap_3
X__dut__.__uuf__._1840_ __dut__.__uuf__._1840_/A VGND VGND VPWR VPWR __dut__.__uuf__._1840_/Y
+ sky130_fd_sc_hd__inv_2
X__dut__.__uuf__._1771_ __dut__.__uuf__._1771_/A VGND VGND VPWR VPWR __dut__.__uuf__._1988_/A
+ sky130_fd_sc_hd__buf_2
XFILLER_60_581 VGND VGND VPWR VPWR sky130_fd_sc_hd__decap_12
XFILLER_146_642 VGND VGND VPWR VPWR sky130_fd_sc_hd__decap_12
XFILLER_118_300 VGND VGND VPWR VPWR sky130_fd_sc_hd__decap_12
XANTENNA___dut__._2614__A rst VGND VGND VPWR VPWR sky130_fd_sc_hd__diode_2
XFILLER_134_837 VGND VGND VPWR VPWR sky130_fd_sc_hd__decap_4
X__dut__.__uuf__._2323_ __dut__.__uuf__._2323_/CLK __dut__._2150_/X __dut__.__uuf__._1441_/X
+ VGND VGND VPWR VPWR __dut__._2151_/B sky130_fd_sc_hd__dfrtp_4
XFILLER_145_196 VGND VGND VPWR VPWR sky130_fd_sc_hd__decap_12
X__dut__.__uuf__._2254_ __dut__.__uuf__._2278_/CLK __dut__._2012_/X __dut__.__uuf__._1627_/X
+ VGND VGND VPWR VPWR __dut__._2013_/B sky130_fd_sc_hd__dfrtp_4
XFILLER_141_391 VGND VGND VPWR VPWR sky130_fd_sc_hd__decap_12
XFILLER_102_756 VGND VGND VPWR VPWR sky130_fd_sc_hd__decap_6
X__dut__.__uuf__._2185_ VGND VGND VPWR VPWR __dut__.__uuf__._2185_/HI tie[130] sky130_fd_sc_hd__conb_1
X__dut__.__uuf__._1205_ __dut__.__uuf__._1192_/X __dut__.__uuf__._1204_/X __dut__._2249_/B
+ __dut__._2251_/B __dut__.__uuf__._1200_/X VGND VGND VPWR VPWR __dut__._2248_/A2
+ sky130_fd_sc_hd__a32o_4
XFILLER_59_147 VGND VGND VPWR VPWR sky130_fd_sc_hd__decap_12
X__dut__.__uuf__._1136_ __dut__.__uuf__._1146_/A VGND VGND VPWR VPWR __dut__.__uuf__._1136_/X
+ sky130_fd_sc_hd__buf_2
XANTENNA___dut__.__uuf__._2248__CLK __dut__.__uuf__._2288_/CLK VGND VGND VPWR VPWR
+ sky130_fd_sc_hd__diode_2
XFILLER_114_56 VGND VGND VPWR VPWR sky130_fd_sc_hd__decap_12
XFILLER_87_489 VGND VGND VPWR VPWR sky130_fd_sc_hd__decap_12
XFILLER_74_117 VGND VGND VPWR VPWR sky130_fd_sc_hd__decap_12
X__dut__._2370_ rst VGND VGND VPWR VPWR __dut__._2370_/Y sky130_fd_sc_hd__inv_2
XFILLER_74_27 VGND VGND VPWR VPWR sky130_fd_sc_hd__decap_4
XFILLER_55_342 VGND VGND VPWR VPWR sky130_fd_sc_hd__decap_12
X__dut__._1321_ __dut__._1321_/A __dut__._2635_/Q VGND VGND VPWR VPWR __dut__._1321_/X
+ sky130_fd_sc_hd__and2_4
X__dut__.__uuf__._1067_ __dut__.__uuf__._1058_/X __dut__.__uuf__._1055_/X __dut__._2341_/B
+ __dut__._2343_/B __dut__.__uuf__._1066_/X VGND VGND VPWR VPWR __dut__._2340_/A2
+ sky130_fd_sc_hd__a32o_4
XFILLER_83_684 VGND VGND VPWR VPWR sky130_fd_sc_hd__decap_12
XFILLER_70_312 VGND VGND VPWR VPWR sky130_fd_sc_hd__decap_12
XFILLER_130_44 VGND VGND VPWR VPWR sky130_fd_sc_hd__decap_12
XFILLER_130_22 VGND VGND VPWR VPWR sky130_fd_sc_hd__decap_8
XFILLER_43_548 VGND VGND VPWR VPWR sky130_fd_sc_hd__fill_1
XPHY_702 VGND VPWR sky130_fd_sc_hd__tapvpwrvgnd_1
XPHY_2024 VGND VPWR sky130_fd_sc_hd__tapvpwrvgnd_1
XPHY_2035 VGND VPWR sky130_fd_sc_hd__tapvpwrvgnd_1
XPHY_2013 VGND VPWR sky130_fd_sc_hd__tapvpwrvgnd_1
XPHY_2002 VGND VPWR sky130_fd_sc_hd__tapvpwrvgnd_1
XPHY_713 VGND VPWR sky130_fd_sc_hd__tapvpwrvgnd_1
XPHY_724 VGND VPWR sky130_fd_sc_hd__tapvpwrvgnd_1
XPHY_735 VGND VPWR sky130_fd_sc_hd__tapvpwrvgnd_1
XPHY_2068 VGND VPWR sky130_fd_sc_hd__tapvpwrvgnd_1
XPHY_2057 VGND VPWR sky130_fd_sc_hd__tapvpwrvgnd_1
XPHY_2046 VGND VPWR sky130_fd_sc_hd__tapvpwrvgnd_1
XPHY_1312 VGND VPWR sky130_fd_sc_hd__tapvpwrvgnd_1
XPHY_1323 VGND VPWR sky130_fd_sc_hd__tapvpwrvgnd_1
XPHY_1301 VGND VPWR sky130_fd_sc_hd__tapvpwrvgnd_1
X_200_ _202_/A VGND VGND VPWR VPWR _200_/X sky130_fd_sc_hd__buf_2
XPHY_746 VGND VPWR sky130_fd_sc_hd__tapvpwrvgnd_1
XPHY_757 VGND VPWR sky130_fd_sc_hd__tapvpwrvgnd_1
XPHY_768 VGND VPWR sky130_fd_sc_hd__tapvpwrvgnd_1
X__dut__.__uuf__._1969_ __dut__.__uuf__._1969_/A VGND VGND VPWR VPWR __dut__.__uuf__._1969_/Y
+ sky130_fd_sc_hd__inv_2
XFILLER_156_428 VGND VGND VPWR VPWR sky130_fd_sc_hd__decap_6
XFILLER_139_20 VGND VGND VPWR VPWR sky130_fd_sc_hd__decap_12
XPHY_2079 VGND VPWR sky130_fd_sc_hd__tapvpwrvgnd_1
XPHY_1356 VGND VPWR sky130_fd_sc_hd__tapvpwrvgnd_1
XPHY_1345 VGND VPWR sky130_fd_sc_hd__tapvpwrvgnd_1
XPHY_1334 VGND VPWR sky130_fd_sc_hd__tapvpwrvgnd_1
X_131_ _311_/Q _230_/A VGND VGND VPWR VPWR _131_/Y sky130_fd_sc_hd__nor2_4
XPHY_779 VGND VPWR sky130_fd_sc_hd__tapvpwrvgnd_1
Xclkbuf_3_1_0_tck clkbuf_3_1_0_tck/A VGND VGND VPWR VPWR clkbuf_4_3_0_tck/A sky130_fd_sc_hd__clkbuf_1
XPHY_1389 VGND VPWR sky130_fd_sc_hd__tapvpwrvgnd_1
XPHY_1378 VGND VPWR sky130_fd_sc_hd__tapvpwrvgnd_1
XPHY_1367 VGND VPWR sky130_fd_sc_hd__tapvpwrvgnd_1
XANTENNA___dut__._2524__A rst VGND VGND VPWR VPWR sky130_fd_sc_hd__diode_2
XFILLER_23_86 VGND VGND VPWR VPWR sky130_fd_sc_hd__decap_8
XFILLER_139_86 VGND VGND VPWR VPWR sky130_fd_sc_hd__decap_12
XFILLER_136_141 VGND VGND VPWR VPWR sky130_fd_sc_hd__decap_12
XANTENNA___dut__.__uuf__._1060__A __dut__.__uuf__._2054_/A VGND VGND VPWR VPWR sky130_fd_sc_hd__diode_2
Xpsn_inst_psn_buff_90 __dut__._2070_/A1 VGND VGND VPWR VPWR __dut__._1660_/A1 sky130_fd_sc_hd__buf_2
XFILLER_155_85 VGND VGND VPWR VPWR sky130_fd_sc_hd__decap_12
XFILLER_105_550 VGND VGND VPWR VPWR sky130_fd_sc_hd__decap_12
XFILLER_3_677 VGND VGND VPWR VPWR sky130_fd_sc_hd__fill_1
X__dut__._2706_ clkbuf_5_9_0_tck/X __dut__._2706_/D __dut__._2546_/Y VGND VGND VPWR
+ VPWR __dut__._2706_/Q sky130_fd_sc_hd__dfrtp_4
XFILLER_120_520 VGND VGND VPWR VPWR sky130_fd_sc_hd__decap_12
XFILLER_78_445 VGND VGND VPWR VPWR sky130_fd_sc_hd__decap_12
X__dut__._2637_ __dut__._2357_/B __dut__._2637_/D __dut__._2615_/Y VGND VGND VPWR
+ VPWR __dut__._2637_/Q sky130_fd_sc_hd__dfrtp_4
XFILLER_93_415 VGND VGND VPWR VPWR sky130_fd_sc_hd__decap_12
XFILLER_66_629 VGND VGND VPWR VPWR sky130_fd_sc_hd__decap_12
X__dut__._2568_ rst VGND VGND VPWR VPWR __dut__._2568_/Y sky130_fd_sc_hd__inv_2
X__dut__._2499_ rst VGND VGND VPWR VPWR __dut__._2499_/Y sky130_fd_sc_hd__inv_2
X__dut__._1519_ _234_/Y __dut__._2686_/Q VGND VGND VPWR VPWR __dut__._1519_/X sky130_fd_sc_hd__and2_4
XFILLER_64_82 VGND VGND VPWR VPWR sky130_fd_sc_hd__decap_8
XANTENNA___dut__._1603__A __dut__._1793_/A VGND VGND VPWR VPWR sky130_fd_sc_hd__diode_2
XFILLER_64_93 VGND VGND VPWR VPWR sky130_fd_sc_hd__decap_12
XFILLER_61_367 VGND VGND VPWR VPWR sky130_fd_sc_hd__decap_12
XFILLER_42_581 VGND VGND VPWR VPWR sky130_fd_sc_hd__decap_12
XFILLER_9_55 VGND VGND VPWR VPWR sky130_fd_sc_hd__fill_1
XFILLER_147_428 VGND VGND VPWR VPWR sky130_fd_sc_hd__decap_12
XANTENNA___dut__._2434__A rst VGND VGND VPWR VPWR sky130_fd_sc_hd__diode_2
XFILLER_128_642 VGND VGND VPWR VPWR sky130_fd_sc_hd__decap_12
XPHY_1890 VGND VPWR sky130_fd_sc_hd__tapvpwrvgnd_1
XFILLER_143_623 VGND VGND VPWR VPWR sky130_fd_sc_hd__decap_12
XFILLER_116_837 VGND VGND VPWR VPWR sky130_fd_sc_hd__decap_4
XFILLER_127_196 VGND VGND VPWR VPWR sky130_fd_sc_hd__decap_12
XFILLER_50_3 VGND VGND VPWR VPWR sky130_fd_sc_hd__decap_8
XFILLER_142_166 VGND VGND VPWR VPWR sky130_fd_sc_hd__decap_12
XFILLER_131_818 VGND VGND VPWR VPWR sky130_fd_sc_hd__decap_12
XFILLER_123_391 VGND VGND VPWR VPWR sky130_fd_sc_hd__decap_12
XFILLER_111_586 VGND VGND VPWR VPWR sky130_fd_sc_hd__decap_12
XFILLER_69_489 VGND VGND VPWR VPWR sky130_fd_sc_hd__decap_12
XFILLER_56_117 VGND VGND VPWR VPWR sky130_fd_sc_hd__decap_12
XFILLER_84_459 VGND VGND VPWR VPWR sky130_fd_sc_hd__decap_12
XANTENNA___dut__._1428__A2 mp[10] VGND VGND VPWR VPWR sky130_fd_sc_hd__diode_2
XFILLER_65_684 VGND VGND VPWR VPWR sky130_fd_sc_hd__decap_12
XFILLER_53_813 VGND VGND VPWR VPWR sky130_fd_sc_hd__fill_1
XFILLER_52_312 VGND VGND VPWR VPWR sky130_fd_sc_hd__decap_12
XANTENNA___dut__._2609__A rst VGND VGND VPWR VPWR sky130_fd_sc_hd__diode_2
XANTENNA___dut__._1513__A __dut__._2227_/A VGND VGND VPWR VPWR sky130_fd_sc_hd__diode_2
XFILLER_25_548 VGND VGND VPWR VPWR sky130_fd_sc_hd__fill_1
XFILLER_80_654 VGND VGND VPWR VPWR sky130_fd_sc_hd__decap_12
X__dut__.__uuf__._1823_ __dut__.__uuf__._1823_/A __dut__.__uuf__._1823_/B __dut__.__uuf__._1823_/C
+ VGND VGND VPWR VPWR __dut__.__uuf__._1824_/A sky130_fd_sc_hd__or3_4
XFILLER_60_18 VGND VGND VPWR VPWR sky130_fd_sc_hd__decap_12
X__dut__.__uuf__._1754_ __dut__.__uuf__._1754_/A VGND VGND VPWR VPWR __dut__.__uuf__._1756_/B
+ sky130_fd_sc_hd__inv_2
XFILLER_118_141 VGND VGND VPWR VPWR sky130_fd_sc_hd__decap_12
X__dut__.__uuf__._1685_ __dut__._2319_/B __dut__.__uuf__._1681_/X __dut__._2255_/B
+ __dut__.__uuf__._1682_/X VGND VGND VPWR VPWR prod[12] sky130_fd_sc_hd__o22a_4
XFILLER_20_286 VGND VGND VPWR VPWR sky130_fd_sc_hd__fill_1
XFILLER_146_483 VGND VGND VPWR VPWR sky130_fd_sc_hd__decap_12
X__dut__._1870_ __dut__._1870_/A1 tie[162] __dut__._1869_/X VGND VGND VPWR VPWR __dut__._2854_/D
+ sky130_fd_sc_hd__a21o_4
XFILLER_107_837 VGND VGND VPWR VPWR sky130_fd_sc_hd__decap_4
XFILLER_4_419 VGND VGND VPWR VPWR sky130_fd_sc_hd__fill_1
XANTENNA___dut__._1364__A1 __dut__._1282_/Y VGND VGND VPWR VPWR sky130_fd_sc_hd__diode_2
XFILLER_69_27 VGND VGND VPWR VPWR sky130_fd_sc_hd__decap_12
XFILLER_134_678 VGND VGND VPWR VPWR sky130_fd_sc_hd__decap_12
XFILLER_121_306 VGND VGND VPWR VPWR sky130_fd_sc_hd__decap_12
X__dut__.__uuf__._2306_ __dut__.__uuf__._2319_/CLK __dut__._2116_/X __dut__.__uuf__._1516_/X
+ VGND VGND VPWR VPWR __dut__._2117_/B sky130_fd_sc_hd__dfrtp_4
XFILLER_102_520 VGND VGND VPWR VPWR sky130_fd_sc_hd__decap_12
XFILLER_87_220 VGND VGND VPWR VPWR sky130_fd_sc_hd__decap_12
X__dut__.__uuf__._2237_ __dut__.__uuf__._2282_/CLK __dut__._1978_/X __dut__.__uuf__._1647_/X
+ VGND VGND VPWR VPWR __dut__._1979_/B sky130_fd_sc_hd__dfrtp_4
XFILLER_0_647 VGND VGND VPWR VPWR sky130_fd_sc_hd__fill_1
XFILLER_88_776 VGND VGND VPWR VPWR sky130_fd_sc_hd__decap_12
X__dut__.__uuf__._2168_ VGND VGND VPWR VPWR __dut__.__uuf__._2168_/HI tie[113] sky130_fd_sc_hd__conb_1
X__dut__._2422_ rst VGND VGND VPWR VPWR __dut__._2422_/Y sky130_fd_sc_hd__inv_2
XFILLER_75_415 VGND VGND VPWR VPWR sky130_fd_sc_hd__decap_12
XFILLER_48_629 VGND VGND VPWR VPWR sky130_fd_sc_hd__decap_12
X__dut__.__uuf__._2099_ VGND VGND VPWR VPWR __dut__.__uuf__._2099_/HI tie[44] sky130_fd_sc_hd__conb_1
X__dut__.__uuf__._1119_ __dut__.__uuf__._1118_/X __dut__.__uuf__._1114_/X __dut__._2307_/B
+ __dut__._2309_/B __dut__.__uuf__._1111_/X VGND VGND VPWR VPWR __dut__._2306_/A2
+ sky130_fd_sc_hd__a32o_4
X__dut__._2353_ __dut__._2355_/A __dut__._2353_/B VGND VGND VPWR VPWR __dut__._2353_/X
+ sky130_fd_sc_hd__and2_4
XFILLER_141_54 VGND VGND VPWR VPWR sky130_fd_sc_hd__decap_6
XFILLER_43_301 VGND VGND VPWR VPWR sky130_fd_sc_hd__fill_1
X__dut__._1304_ __dut__._1282_/Y mc[14] __dut__._1303_/X VGND VGND VPWR VPWR __dut__._1304_/X
+ sky130_fd_sc_hd__a21o_4
XANTENNA___dut__._2519__A rst VGND VGND VPWR VPWR sky130_fd_sc_hd__diode_2
XANTENNA___dut__._1423__A _234_/Y VGND VGND VPWR VPWR sky130_fd_sc_hd__diode_2
XANTENNA_psn_inst_psn_buff_57_A __dut__._2070_/A1 VGND VGND VPWR VPWR sky130_fd_sc_hd__diode_2
X__dut__._2284_ __dut__._2284_/A1 __dut__._2284_/A2 __dut__._2283_/X VGND VGND VPWR
+ VPWR __dut__._2284_/X sky130_fd_sc_hd__a21o_4
XFILLER_141_98 VGND VGND VPWR VPWR sky130_fd_sc_hd__decap_12
XPHY_510 VGND VPWR sky130_fd_sc_hd__tapvpwrvgnd_1
XFILLER_16_559 VGND VGND VPWR VPWR sky130_fd_sc_hd__decap_12
XPHY_521 VGND VPWR sky130_fd_sc_hd__tapvpwrvgnd_1
XPHY_532 VGND VPWR sky130_fd_sc_hd__tapvpwrvgnd_1
XPHY_543 VGND VPWR sky130_fd_sc_hd__tapvpwrvgnd_1
XFILLER_24_581 VGND VGND VPWR VPWR sky130_fd_sc_hd__decap_12
XFILLER_156_203 VGND VGND VPWR VPWR sky130_fd_sc_hd__fill_1
XPHY_1131 VGND VPWR sky130_fd_sc_hd__tapvpwrvgnd_1
XPHY_1120 VGND VPWR sky130_fd_sc_hd__tapvpwrvgnd_1
XFILLER_11_231 VGND VGND VPWR VPWR sky130_fd_sc_hd__fill_1
XPHY_554 VGND VPWR sky130_fd_sc_hd__tapvpwrvgnd_1
XPHY_565 VGND VPWR sky130_fd_sc_hd__tapvpwrvgnd_1
XPHY_576 VGND VPWR sky130_fd_sc_hd__tapvpwrvgnd_1
XPHY_587 VGND VPWR sky130_fd_sc_hd__tapvpwrvgnd_1
XFILLER_129_428 VGND VGND VPWR VPWR sky130_fd_sc_hd__decap_12
XPHY_1175 VGND VPWR sky130_fd_sc_hd__tapvpwrvgnd_1
XPHY_1164 VGND VPWR sky130_fd_sc_hd__tapvpwrvgnd_1
XPHY_1153 VGND VPWR sky130_fd_sc_hd__tapvpwrvgnd_1