* NGSPICE file created from user_proj_top.ext - technology: sky130A

* Black-box entry subcircuit for sky130_fd_sc_hd__decap_12 abstract view
.subckt sky130_fd_sc_hd__decap_12 VGND VNB VPB VPWR
.ends

* Black-box entry subcircuit for sky130_fd_sc_hd__diode_2 abstract view
.subckt sky130_fd_sc_hd__diode_2 DIODE VGND VNB VPB VPWR
.ends

* Black-box entry subcircuit for sky130_fd_sc_hd__tapvpwrvgnd_1 abstract view
.subckt sky130_fd_sc_hd__tapvpwrvgnd_1 VGND VPWR
.ends

* Black-box entry subcircuit for sky130_fd_sc_hd__buf_2 abstract view
.subckt sky130_fd_sc_hd__buf_2 A VGND VNB VPB VPWR X
.ends

* Black-box entry subcircuit for sky130_fd_sc_hd__inv_2 abstract view
.subckt sky130_fd_sc_hd__inv_2 A VGND VNB VPB VPWR Y
.ends

* Black-box entry subcircuit for sky130_fd_sc_hd__a32o_4 abstract view
.subckt sky130_fd_sc_hd__a32o_4 A1 A2 A3 B1 B2 VGND VNB VPB VPWR X
.ends

* Black-box entry subcircuit for sky130_fd_sc_hd__a21o_4 abstract view
.subckt sky130_fd_sc_hd__a21o_4 A1 A2 B1 VGND VNB VPB VPWR X
.ends

* Black-box entry subcircuit for sky130_fd_sc_hd__fill_2 abstract view
.subckt sky130_fd_sc_hd__fill_2 VGND VNB VPB VPWR
.ends

* Black-box entry subcircuit for sky130_fd_sc_hd__and2_4 abstract view
.subckt sky130_fd_sc_hd__and2_4 A B VGND VNB VPB VPWR X
.ends

* Black-box entry subcircuit for sky130_fd_sc_hd__clkbuf_1 abstract view
.subckt sky130_fd_sc_hd__clkbuf_1 A VGND VNB VPB VPWR X
.ends

* Black-box entry subcircuit for sky130_fd_sc_hd__clkbuf_16 abstract view
.subckt sky130_fd_sc_hd__clkbuf_16 A VGND VNB VPB VPWR X
.ends

* Black-box entry subcircuit for sky130_fd_sc_hd__decap_3 abstract view
.subckt sky130_fd_sc_hd__decap_3 VGND VNB VPB VPWR
.ends

* Black-box entry subcircuit for sky130_fd_sc_hd__dfrtp_4 abstract view
.subckt sky130_fd_sc_hd__dfrtp_4 CLK D RESET_B VGND VNB VPB VPWR Q
.ends

* Black-box entry subcircuit for sky130_fd_sc_hd__fill_1 abstract view
.subckt sky130_fd_sc_hd__fill_1 VGND VNB VPB VPWR
.ends

* Black-box entry subcircuit for sky130_fd_sc_hd__decap_4 abstract view
.subckt sky130_fd_sc_hd__decap_4 VGND VNB VPB VPWR
.ends

* Black-box entry subcircuit for sky130_fd_sc_hd__decap_8 abstract view
.subckt sky130_fd_sc_hd__decap_8 VGND VNB VPB VPWR
.ends

* Black-box entry subcircuit for sky130_fd_sc_hd__dfxtp_4 abstract view
.subckt sky130_fd_sc_hd__dfxtp_4 CLK D VGND VNB VPB VPWR Q
.ends

* Black-box entry subcircuit for sky130_fd_sc_hd__decap_6 abstract view
.subckt sky130_fd_sc_hd__decap_6 VGND VNB VPB VPWR
.ends

* Black-box entry subcircuit for sky130_fd_sc_hd__o21a_4 abstract view
.subckt sky130_fd_sc_hd__o21a_4 A1 A2 B1 VGND VNB VPB VPWR X
.ends

* Black-box entry subcircuit for sky130_fd_sc_hd__or3_4 abstract view
.subckt sky130_fd_sc_hd__or3_4 A B C VGND VNB VPB VPWR X
.ends

* Black-box entry subcircuit for sky130_fd_sc_hd__conb_1 abstract view
.subckt sky130_fd_sc_hd__conb_1 VGND VNB VPB VPWR HI LO
.ends

* Black-box entry subcircuit for sky130_fd_sc_hd__buf_8 abstract view
.subckt sky130_fd_sc_hd__buf_8 A VGND VNB VPB VPWR X
.ends

* Black-box entry subcircuit for sky130_fd_sc_hd__o22a_4 abstract view
.subckt sky130_fd_sc_hd__o22a_4 A1 A2 B1 B2 VGND VNB VPB VPWR X
.ends

* Black-box entry subcircuit for sky130_fd_sc_hd__a2bb2o_4 abstract view
.subckt sky130_fd_sc_hd__a2bb2o_4 A1_N A2_N B1 B2 VGND VNB VPB VPWR X
.ends

* Black-box entry subcircuit for sky130_fd_sc_hd__o21ai_4 abstract view
.subckt sky130_fd_sc_hd__o21ai_4 A1 A2 B1 VGND VNB VPB VPWR Y
.ends

* Black-box entry subcircuit for sky130_fd_sc_hd__or2_4 abstract view
.subckt sky130_fd_sc_hd__or2_4 A B VGND VNB VPB VPWR X
.ends

* Black-box entry subcircuit for sky130_fd_sc_hd__a21boi_4 abstract view
.subckt sky130_fd_sc_hd__a21boi_4 A1 A2 B1_N VGND VNB VPB VPWR Y
.ends

* Black-box entry subcircuit for sky130_fd_sc_hd__buf_4 abstract view
.subckt sky130_fd_sc_hd__buf_4 A VGND VNB VPB VPWR X
.ends

* Black-box entry subcircuit for sky130_fd_sc_hd__and4_4 abstract view
.subckt sky130_fd_sc_hd__and4_4 A B C D VGND VNB VPB VPWR X
.ends

* Black-box entry subcircuit for sky130_fd_sc_hd__dfstp_4 abstract view
.subckt sky130_fd_sc_hd__dfstp_4 CLK D SET_B VGND VNB VPB VPWR Q
.ends

* Black-box entry subcircuit for sky130_fd_sc_hd__nor2_4 abstract view
.subckt sky130_fd_sc_hd__nor2_4 A B VGND VNB VPB VPWR Y
.ends

* Black-box entry subcircuit for sky130_fd_sc_hd__inv_8 abstract view
.subckt sky130_fd_sc_hd__inv_8 A VGND VNB VPB VPWR Y
.ends

* Black-box entry subcircuit for sky130_fd_sc_hd__a211o_4 abstract view
.subckt sky130_fd_sc_hd__a211o_4 A1 A2 B1 C1 VGND VNB VPB VPWR X
.ends

* Black-box entry subcircuit for sky130_fd_sc_hd__or4_4 abstract view
.subckt sky130_fd_sc_hd__or4_4 A B C D VGND VNB VPB VPWR X
.ends

* Black-box entry subcircuit for sky130_fd_sc_hd__nand2_4 abstract view
.subckt sky130_fd_sc_hd__nand2_4 A B VGND VNB VPB VPWR Y
.ends

* Black-box entry subcircuit for sky130_fd_sc_hd__o32a_4 abstract view
.subckt sky130_fd_sc_hd__o32a_4 A1 A2 A3 B1 B2 VGND VNB VPB VPWR X
.ends

.subckt user_proj_top clk done mc[0] mc[10] mc[11] mc[12] mc[13] mc[14] mc[15] mc[16]
+ mc[17] mc[18] mc[19] mc[1] mc[20] mc[21] mc[22] mc[23] mc[24] mc[25] mc[26] mc[27]
+ mc[28] mc[29] mc[2] mc[30] mc[31] mc[3] mc[4] mc[5] mc[6] mc[7] mc[8] mc[9] mp[0]
+ mp[10] mp[11] mp[12] mp[13] mp[14] mp[15] mp[16] mp[17] mp[18] mp[19] mp[1] mp[20]
+ mp[21] mp[22] mp[23] mp[24] mp[25] mp[26] mp[27] mp[28] mp[29] mp[2] mp[30] mp[31]
+ mp[3] mp[4] mp[5] mp[6] mp[7] mp[8] mp[9] prod[0] prod[10] prod[11] prod[12] prod[13]
+ prod[14] prod[15] prod[16] prod[17] prod[18] prod[19] prod[1] prod[20] prod[21]
+ prod[22] prod[23] prod[24] prod[25] prod[26] prod[27] prod[28] prod[29] prod[2]
+ prod[30] prod[31] prod[32] prod[33] prod[34] prod[35] prod[36] prod[37] prod[38]
+ prod[39] prod[3] prod[40] prod[41] prod[42] prod[43] prod[44] prod[45] prod[46]
+ prod[47] prod[48] prod[49] prod[4] prod[50] prod[51] prod[52] prod[53] prod[54]
+ prod[55] prod[56] prod[57] prod[58] prod[59] prod[5] prod[60] prod[61] prod[62]
+ prod[63] prod[6] prod[7] prod[8] prod[9] rst start tck tdi tdo tdo_paden_o tie[0]
+ tie[100] tie[101] tie[102] tie[103] tie[104] tie[105] tie[106] tie[107] tie[108]
+ tie[109] tie[10] tie[110] tie[111] tie[112] tie[113] tie[114] tie[115] tie[116]
+ tie[117] tie[118] tie[119] tie[11] tie[120] tie[121] tie[122] tie[123] tie[124]
+ tie[125] tie[126] tie[127] tie[128] tie[129] tie[12] tie[130] tie[131] tie[132]
+ tie[133] tie[134] tie[135] tie[136] tie[137] tie[138] tie[139] tie[13] tie[140]
+ tie[141] tie[142] tie[143] tie[144] tie[145] tie[146] tie[147] tie[148] tie[149]
+ tie[14] tie[150] tie[151] tie[152] tie[153] tie[154] tie[155] tie[156] tie[157]
+ tie[158] tie[159] tie[15] tie[160] tie[161] tie[162] tie[163] tie[164] tie[165]
+ tie[166] tie[167] tie[168] tie[169] tie[16] tie[17] tie[18] tie[19] tie[1] tie[20]
+ tie[21] tie[22] tie[23] tie[24] tie[25] tie[26] tie[27] tie[28] tie[29] tie[2] tie[30]
+ tie[31] tie[32] tie[33] tie[34] tie[35] tie[36] tie[37] tie[38] tie[39] tie[3] tie[40]
+ tie[41] tie[42] tie[43] tie[44] tie[45] tie[46] tie[47] tie[48] tie[49] tie[4] tie[50]
+ tie[51] tie[52] tie[53] tie[54] tie[55] tie[56] tie[57] tie[58] tie[59] tie[5] tie[60]
+ tie[61] tie[62] tie[63] tie[64] tie[65] tie[66] tie[67] tie[68] tie[69] tie[6] tie[70]
+ tie[71] tie[72] tie[73] tie[74] tie[75] tie[76] tie[77] tie[78] tie[79] tie[7] tie[80]
+ tie[81] tie[82] tie[83] tie[84] tie[85] tie[86] tie[87] tie[88] tie[89] tie[8] tie[90]
+ tie[91] tie[92] tie[93] tie[94] tie[95] tie[96] tie[97] tie[98] tie[99] tie[9] tms
+ trst VPWR VGND
XFILLER_100_138 VGND VGND VPWR VPWR sky130_fd_sc_hd__decap_12
XFILLER_79_391 VGND VGND VPWR VPWR sky130_fd_sc_hd__decap_12
XFILLER_94_361 VGND VGND VPWR VPWR sky130_fd_sc_hd__decap_12
XFILLER_67_586 VGND VGND VPWR VPWR sky130_fd_sc_hd__decap_12
XANTENNA___dut__._1505__A __dut__._2189_/A VGND VGND VPWR VPWR sky130_fd_sc_hd__diode_2
XFILLER_82_556 VGND VGND VPWR VPWR sky130_fd_sc_hd__decap_12
XPHY_2408 VGND VPWR sky130_fd_sc_hd__tapvpwrvgnd_1
XPHY_2419 VGND VPWR sky130_fd_sc_hd__tapvpwrvgnd_1
XPHY_1707 VGND VPWR sky130_fd_sc_hd__tapvpwrvgnd_1
XPHY_1729 VGND VPWR sky130_fd_sc_hd__tapvpwrvgnd_1
XPHY_1718 VGND VPWR sky130_fd_sc_hd__tapvpwrvgnd_1
XFILLER_148_385 VGND VGND VPWR VPWR sky130_fd_sc_hd__decap_12
XFILLER_108_227 VGND VGND VPWR VPWR sky130_fd_sc_hd__decap_12
X__dut__.__uuf__._1506_ __dut__.__uuf__._1522_/A VGND VGND VPWR VPWR __dut__.__uuf__._1506_/X
+ sky130_fd_sc_hd__buf_2
XFILLER_123_208 VGND VGND VPWR VPWR sky130_fd_sc_hd__decap_12
X__dut__._2740_ rst VGND VGND VPWR VPWR __dut__._2740_/Y sky130_fd_sc_hd__inv_2
XFILLER_117_794 VGND VGND VPWR VPWR sky130_fd_sc_hd__decap_12
XFILLER_117_22 VGND VGND VPWR VPWR sky130_fd_sc_hd__decap_12
XFILLER_104_422 VGND VGND VPWR VPWR sky130_fd_sc_hd__decap_12
X__dut__._2671_ rst VGND VGND VPWR VPWR __dut__._2671_/Y sky130_fd_sc_hd__inv_2
X__dut__.__uuf__._1437_ __dut__.__uuf__._1206_/X __dut__.__uuf__._1435_/X __dut__._2299_/B
+ __dut__.__uuf__._1988_/B __dut__.__uuf__._1436_/X VGND VGND VPWR VPWR __dut__._2298_/A2
+ sky130_fd_sc_hd__a32o_4
XFILLER_132_764 VGND VGND VPWR VPWR sky130_fd_sc_hd__decap_12
XFILLER_77_15 VGND VGND VPWR VPWR sky130_fd_sc_hd__decap_12
X__dut__.__uuf__._1368_ __dut__._2329_/B VGND VGND VPWR VPWR __dut__.__uuf__._1368_/Y
+ sky130_fd_sc_hd__inv_2
X__dut__._1622_ __dut__._1622_/A1 __dut__._1620_/X __dut__._1621_/X VGND VGND VPWR
+ VPWR __dut__._2871_/D sky130_fd_sc_hd__a21o_4
XFILLER_77_306 VGND VGND VPWR VPWR sky130_fd_sc_hd__decap_12
XFILLER_77_59 VGND VGND VPWR VPWR sky130_fd_sc_hd__fill_2
XANTENNA___dut__._2917__CLK clkbuf_5_9_0_tck/X VGND VGND VPWR VPWR sky130_fd_sc_hd__diode_2
XFILLER_133_32 VGND VGND VPWR VPWR sky130_fd_sc_hd__decap_12
XFILLER_58_520 VGND VGND VPWR VPWR sky130_fd_sc_hd__decap_12
X__dut__._1553_ __dut__._1553_/A __dut__._2843_/Q VGND VGND VPWR VPWR __dut__._1553_/X
+ sky130_fd_sc_hd__and2_4
Xclkbuf_4_14_0___dut__.__uuf__.__clk_source__ clkbuf_3_7_0___dut__.__uuf__.__clk_source__/X
+ VGND VGND VPWR VPWR __dut__.__uuf__._2334_/CLK sky130_fd_sc_hd__clkbuf_1
X__dut__.__uuf__._1299_ __dut__.__uuf__._1308_/A VGND VGND VPWR VPWR __dut__.__uuf__._1299_/X
+ sky130_fd_sc_hd__buf_2
Xclkbuf_opt_1_tck clkbuf_opt_2_tck/A VGND VGND VPWR VPWR clkbuf_opt_1_tck/X sky130_fd_sc_hd__clkbuf_16
XFILLER_73_501 VGND VGND VPWR VPWR sky130_fd_sc_hd__decap_12
XFILLER_46_715 VGND VGND VPWR VPWR sky130_fd_sc_hd__decap_12
X__dut__._1484_ __dut__._1374_/Y mp[2] __dut__._1483_/X VGND VGND VPWR VPWR __dut__._1484_/X
+ sky130_fd_sc_hd__a21o_4
XFILLER_133_98 VGND VGND VPWR VPWR sky130_fd_sc_hd__decap_12
XFILLER_46_759 VGND VGND VPWR VPWR sky130_fd_sc_hd__fill_2
XFILLER_45_203 VGND VGND VPWR VPWR sky130_fd_sc_hd__decap_3
XANTENNA___dut__._1415__A __dut__._2509_/A VGND VGND VPWR VPWR sky130_fd_sc_hd__diode_2
XFILLER_60_239 VGND VGND VPWR VPWR sky130_fd_sc_hd__decap_12
X__dut__._2105_ __dut__._2105_/A __dut__._2870_/Q VGND VGND VPWR VPWR __dut__._2105_/X
+ sky130_fd_sc_hd__and2_4
X__dut__._3085_ __dut__._3109_/CLK __dut__._3085_/D __dut__._2533_/Y VGND VGND VPWR
+ VPWR __dut__._3085_/Q sky130_fd_sc_hd__dfrtp_4
X__dut__._2036_ __dut__._2044_/A1 prod[0] __dut__._2035_/X VGND VGND VPWR VPWR __dut__._3075_/D
+ sky130_fd_sc_hd__a21o_4
XFILLER_139_330 VGND VGND VPWR VPWR sky130_fd_sc_hd__decap_12
X_294_ _306_/CLK _294_/D trst VGND VGND VPWR VPWR _294_/Q sky130_fd_sc_hd__dfrtp_4
XFILLER_127_525 VGND VGND VPWR VPWR sky130_fd_sc_hd__decap_12
XFILLER_42_84 VGND VGND VPWR VPWR sky130_fd_sc_hd__fill_1
XFILLER_5_365 VGND VGND VPWR VPWR sky130_fd_sc_hd__fill_1
X__dut__._2938_ __dut__._2941_/CLK __dut__._2938_/D __dut__._2680_/Y VGND VGND VPWR
+ VPWR __dut__._2938_/Q sky130_fd_sc_hd__dfrtp_4
XFILLER_123_720 VGND VGND VPWR VPWR sky130_fd_sc_hd__decap_12
XFILLER_107_293 VGND VGND VPWR VPWR sky130_fd_sc_hd__decap_12
X__dut__._2869_ __dut__._2961_/CLK __dut__._2869_/D __dut__._2749_/Y VGND VGND VPWR
+ VPWR __dut__._2869_/Q sky130_fd_sc_hd__dfrtp_4
XFILLER_122_263 VGND VGND VPWR VPWR sky130_fd_sc_hd__decap_12
XFILLER_95_147 VGND VGND VPWR VPWR sky130_fd_sc_hd__decap_12
XFILLER_3_89 VGND VGND VPWR VPWR sky130_fd_sc_hd__fill_1
XFILLER_76_361 VGND VGND VPWR VPWR sky130_fd_sc_hd__decap_12
XANTENNA__290__CLK _290_/CLK VGND VGND VPWR VPWR sky130_fd_sc_hd__diode_2
XFILLER_49_586 VGND VGND VPWR VPWR sky130_fd_sc_hd__decap_12
XFILLER_91_342 VGND VGND VPWR VPWR sky130_fd_sc_hd__decap_12
XFILLER_64_556 VGND VGND VPWR VPWR sky130_fd_sc_hd__decap_12
XFILLER_45_792 VGND VGND VPWR VPWR sky130_fd_sc_hd__fill_1
XFILLER_17_483 VGND VGND VPWR VPWR sky130_fd_sc_hd__decap_4
XANTENNA_psn_inst_psn_buff_206_A __dut__._2507_/A VGND VGND VPWR VPWR sky130_fd_sc_hd__diode_2
XANTENNA___dut__.__uuf__._2202__CLK __dut__.__uuf__._2240_/CLK VGND VGND VPWR VPWR
+ sky130_fd_sc_hd__diode_2
XFILLER_32_497 VGND VGND VPWR VPWR sky130_fd_sc_hd__fill_1
XANTENNA___dut__._1995__A __dut__._2005_/A VGND VGND VPWR VPWR sky130_fd_sc_hd__diode_2
XFILLER_146_812 VGND VGND VPWR VPWR sky130_fd_sc_hd__decap_12
XFILLER_105_208 VGND VGND VPWR VPWR sky130_fd_sc_hd__decap_12
X__dut__.__uuf__._2340_ __dut__.__uuf__._2358_/CLK __dut__._2460_/X __dut__.__uuf__._1098_/X
+ VGND VGND VPWR VPWR prod[39] sky130_fd_sc_hd__dfrtp_4
X__dut__.__uuf__._2271_ __dut__.__uuf__._2278_/CLK __dut__._2322_/X __dut__.__uuf__._1377_/X
+ VGND VGND VPWR VPWR __dut__._2323_/B sky130_fd_sc_hd__dfrtp_4
XFILLER_141_550 VGND VGND VPWR VPWR sky130_fd_sc_hd__decap_12
XFILLER_114_764 VGND VGND VPWR VPWR sky130_fd_sc_hd__decap_12
X__dut__.__uuf__._1222_ __dut__._2375_/B __dut__.__uuf__._1245_/B VGND VGND VPWR VPWR
+ __dut__.__uuf__._1244_/A sky130_fd_sc_hd__and2_4
XANTENNA___dut__._2498__A1 __dut__._2502_/A1 VGND VGND VPWR VPWR sky130_fd_sc_hd__diode_2
XFILLER_101_403 VGND VGND VPWR VPWR sky130_fd_sc_hd__decap_12
XFILLER_99_464 VGND VGND VPWR VPWR sky130_fd_sc_hd__decap_12
XFILLER_59_306 VGND VGND VPWR VPWR sky130_fd_sc_hd__decap_12
XFILLER_87_659 VGND VGND VPWR VPWR sky130_fd_sc_hd__decap_12
XFILLER_68_840 VGND VGND VPWR VPWR sky130_fd_sc_hd__fill_2
X__dut__.__uuf__._1153_ __dut__.__uuf__._1161_/A VGND VGND VPWR VPWR __dut__.__uuf__._1153_/X
+ sky130_fd_sc_hd__buf_2
XFILLER_55_501 VGND VGND VPWR VPWR sky130_fd_sc_hd__decap_12
X__dut__.__uuf__._1084_ __dut__.__uuf__._1087_/A VGND VGND VPWR VPWR __dut__.__uuf__._1084_/X
+ sky130_fd_sc_hd__buf_2
XPHY_2216 VGND VPWR sky130_fd_sc_hd__tapvpwrvgnd_1
XPHY_2205 VGND VPWR sky130_fd_sc_hd__tapvpwrvgnd_1
XPHY_927 VGND VPWR sky130_fd_sc_hd__tapvpwrvgnd_1
XPHY_916 VGND VPWR sky130_fd_sc_hd__tapvpwrvgnd_1
XPHY_905 VGND VPWR sky130_fd_sc_hd__tapvpwrvgnd_1
X__dut__.__uuf__._1986_ __dut__.__uuf__._1986_/A VGND VGND VPWR VPWR __dut__._2236_/A2
+ sky130_fd_sc_hd__inv_2
XPHY_2249 VGND VPWR sky130_fd_sc_hd__tapvpwrvgnd_1
XPHY_2238 VGND VPWR sky130_fd_sc_hd__tapvpwrvgnd_1
XPHY_2227 VGND VPWR sky130_fd_sc_hd__tapvpwrvgnd_1
XPHY_1515 VGND VPWR sky130_fd_sc_hd__tapvpwrvgnd_1
XPHY_1504 VGND VPWR sky130_fd_sc_hd__tapvpwrvgnd_1
XFILLER_50_250 VGND VGND VPWR VPWR sky130_fd_sc_hd__decap_12
XPHY_949 VGND VPWR sky130_fd_sc_hd__tapvpwrvgnd_1
XPHY_938 VGND VPWR sky130_fd_sc_hd__tapvpwrvgnd_1
XPHY_1548 VGND VPWR sky130_fd_sc_hd__tapvpwrvgnd_1
XPHY_1537 VGND VPWR sky130_fd_sc_hd__tapvpwrvgnd_1
XPHY_1526 VGND VPWR sky130_fd_sc_hd__tapvpwrvgnd_1
XFILLER_149_672 VGND VGND VPWR VPWR sky130_fd_sc_hd__decap_12
XFILLER_136_300 VGND VGND VPWR VPWR sky130_fd_sc_hd__decap_12
XPHY_1559 VGND VPWR sky130_fd_sc_hd__tapvpwrvgnd_1
XFILLER_109_525 VGND VGND VPWR VPWR sky130_fd_sc_hd__decap_12
XFILLER_152_815 VGND VGND VPWR VPWR sky130_fd_sc_hd__decap_8
XFILLER_128_32 VGND VGND VPWR VPWR sky130_fd_sc_hd__decap_12
XFILLER_105_720 VGND VGND VPWR VPWR sky130_fd_sc_hd__decap_12
X__dut__._2723_ rst VGND VGND VPWR VPWR __dut__._2723_/Y sky130_fd_sc_hd__inv_2
XFILLER_144_20 VGND VGND VPWR VPWR sky130_fd_sc_hd__decap_8
XFILLER_104_263 VGND VGND VPWR VPWR sky130_fd_sc_hd__decap_12
X__dut__._2654_ rst VGND VGND VPWR VPWR __dut__._2654_/Y sky130_fd_sc_hd__inv_2
XFILLER_77_147 VGND VGND VPWR VPWR sky130_fd_sc_hd__decap_12
X__dut__._2585_ rst VGND VGND VPWR VPWR __dut__._2585_/Y sky130_fd_sc_hd__inv_2
X__dut__._1605_ __dut__._1605_/A __dut__._2866_/Q VGND VGND VPWR VPWR __dut__._1605_/X
+ sky130_fd_sc_hd__and2_4
XANTENNA_psn_inst_psn_buff_94_A __dut__._1418_/A1 VGND VGND VPWR VPWR sky130_fd_sc_hd__diode_2
X__dut__._1536_ __dut__._1374_/Y mp[14] __dut__._1535_/X VGND VGND VPWR VPWR __dut__._1536_/X
+ sky130_fd_sc_hd__a21o_4
XFILLER_92_117 VGND VGND VPWR VPWR sky130_fd_sc_hd__decap_12
XFILLER_73_342 VGND VGND VPWR VPWR sky130_fd_sc_hd__decap_12
XFILLER_46_556 VGND VGND VPWR VPWR sky130_fd_sc_hd__decap_12
X__dut__._1467_ __dut__._2509_/A __dut__._2833_/Q VGND VGND VPWR VPWR __dut__._1467_/X
+ sky130_fd_sc_hd__and2_4
XANTENNA___dut__._1464__A2 mc[2] VGND VGND VPWR VPWR sky130_fd_sc_hd__diode_2
XFILLER_37_62 VGND VGND VPWR VPWR sky130_fd_sc_hd__fill_2
X__dut__._1398_ __dut__._1398_/A1 __dut__._1396_/X __dut__._1397_/X VGND VGND VPWR
+ VPWR __dut__._2815_/D sky130_fd_sc_hd__a21o_4
XFILLER_33_217 VGND VGND VPWR VPWR sky130_fd_sc_hd__fill_1
XFILLER_61_537 VGND VGND VPWR VPWR sky130_fd_sc_hd__decap_12
Xclkbuf_4_12_0_tck clkbuf_3_6_0_tck/X VGND VGND VPWR VPWR clkbuf_5_25_0_tck/A sky130_fd_sc_hd__clkbuf_1
XFILLER_42_751 VGND VGND VPWR VPWR sky130_fd_sc_hd__decap_4
X__dut__._3068_ clkbuf_5_5_0_tck/X __dut__._3068_/D __dut__._2550_/Y VGND VGND VPWR
+ VPWR __dut__._3068_/Q sky130_fd_sc_hd__dfrtp_4
XFILLER_128_812 VGND VGND VPWR VPWR sky130_fd_sc_hd__decap_12
X__dut__._2019_ __dut__._2207_/A __dut__._3066_/Q VGND VGND VPWR VPWR __dut__._2019_/X
+ sky130_fd_sc_hd__and2_4
XFILLER_139_171 VGND VGND VPWR VPWR sky130_fd_sc_hd__decap_12
X_277_ _194_/A _277_/D VGND VGND VPWR VPWR _277_/Q sky130_fd_sc_hd__dfxtp_4
XANTENNA___dut__._2704__A rst VGND VGND VPWR VPWR sky130_fd_sc_hd__diode_2
XFILLER_123_550 VGND VGND VPWR VPWR sky130_fd_sc_hd__decap_12
XFILLER_111_745 VGND VGND VPWR VPWR sky130_fd_sc_hd__decap_12
XFILLER_96_434 VGND VGND VPWR VPWR sky130_fd_sc_hd__decap_12
XFILLER_78_80 VGND VGND VPWR VPWR sky130_fd_sc_hd__decap_12
XFILLER_69_659 VGND VGND VPWR VPWR sky130_fd_sc_hd__decap_12
XFILLER_84_629 VGND VGND VPWR VPWR sky130_fd_sc_hd__decap_12
XANTENNA_psn_inst_psn_buff_156_A __dut__._1418_/A1 VGND VGND VPWR VPWR sky130_fd_sc_hd__diode_2
XFILLER_110_288 VGND VGND VPWR VPWR sky130_fd_sc_hd__decap_12
XFILLER_37_534 VGND VGND VPWR VPWR sky130_fd_sc_hd__decap_12
XFILLER_49_394 VGND VGND VPWR VPWR sky130_fd_sc_hd__decap_6
X__dut__.__uuf__._1840_ __dut__._1408_/X VGND VGND VPWR VPWR __dut__.__uuf__._1844_/B
+ sky130_fd_sc_hd__inv_2
XANTENNA___dut__._2404__A1 __dut__._2412_/A1 VGND VGND VPWR VPWR sky130_fd_sc_hd__diode_2
X__dut__.__uuf__._1771_ __dut__.__uuf__._1759_/X __dut__.__uuf__._1769_/B __dut__.__uuf__._1769_/C
+ VGND VGND VPWR VPWR __dut__.__uuf__._1772_/C sky130_fd_sc_hd__o21a_4
XFILLER_60_581 VGND VGND VPWR VPWR sky130_fd_sc_hd__decap_12
XFILLER_20_467 VGND VGND VPWR VPWR sky130_fd_sc_hd__fill_1
XFILLER_146_642 VGND VGND VPWR VPWR sky130_fd_sc_hd__decap_12
XFILLER_118_300 VGND VGND VPWR VPWR sky130_fd_sc_hd__decap_12
XANTENNA___dut__._2614__A rst VGND VGND VPWR VPWR sky130_fd_sc_hd__diode_2
XFILLER_134_837 VGND VGND VPWR VPWR sky130_fd_sc_hd__decap_4
X__dut__.__uuf__._2323_ __dut__.__uuf__._2328_/CLK __dut__._2426_/X __dut__.__uuf__._1151_/X
+ VGND VGND VPWR VPWR prod[22] sky130_fd_sc_hd__dfrtp_4
XFILLER_145_196 VGND VGND VPWR VPWR sky130_fd_sc_hd__decap_12
XFILLER_58_28 VGND VGND VPWR VPWR sky130_fd_sc_hd__decap_3
X__dut__.__uuf__._2254_ __dut__.__uuf__._2293_/CLK __dut__._2288_/X __dut__.__uuf__._1457_/X
+ VGND VGND VPWR VPWR __dut__._2289_/B sky130_fd_sc_hd__dfrtp_4
XFILLER_141_391 VGND VGND VPWR VPWR sky130_fd_sc_hd__decap_12
XFILLER_102_756 VGND VGND VPWR VPWR sky130_fd_sc_hd__decap_6
X__dut__.__uuf__._1205_ __dut__.__uuf__._1205_/A VGND VGND VPWR VPWR __dut__.__uuf__._1205_/X
+ sky130_fd_sc_hd__buf_2
X__dut__.__uuf__._2185_ __dut__.__uuf__._2216_/CLK __dut__._2150_/X __dut__.__uuf__._1620_/X
+ VGND VGND VPWR VPWR __dut__._2151_/B sky130_fd_sc_hd__dfrtp_4
XFILLER_59_147 VGND VGND VPWR VPWR sky130_fd_sc_hd__decap_12
X__dut__.__uuf__._1136_ __dut__.__uuf__._1132_/X __dut__.__uuf__._1129_/X prod[27]
+ prod[28] __dut__.__uuf__._1126_/X VGND VGND VPWR VPWR __dut__._2436_/A2 sky130_fd_sc_hd__a32o_4
XANTENNA___dut__._1694__A2 done VGND VGND VPWR VPWR sky130_fd_sc_hd__diode_2
XFILLER_114_56 VGND VGND VPWR VPWR sky130_fd_sc_hd__decap_12
XFILLER_87_489 VGND VGND VPWR VPWR sky130_fd_sc_hd__decap_12
XFILLER_74_117 VGND VGND VPWR VPWR sky130_fd_sc_hd__decap_12
X__dut__._2370_ __dut__._2376_/A1 __dut__._2370_/A2 __dut__._2369_/X VGND VGND VPWR
+ VPWR __dut__._2370_/X sky130_fd_sc_hd__a21o_4
XFILLER_74_27 VGND VGND VPWR VPWR sky130_fd_sc_hd__decap_4
XFILLER_55_342 VGND VGND VPWR VPWR sky130_fd_sc_hd__decap_12
X__dut__.__uuf__._1067_ __dut__.__uuf__._1057_/X __dut__.__uuf__._1054_/X prod[50]
+ prod[51] __dut__.__uuf__._1066_/X VGND VGND VPWR VPWR __dut__._2482_/A2 sky130_fd_sc_hd__a32o_4
XFILLER_130_11 VGND VGND VPWR VPWR sky130_fd_sc_hd__fill_1
XFILLER_83_684 VGND VGND VPWR VPWR sky130_fd_sc_hd__decap_12
XFILLER_70_312 VGND VGND VPWR VPWR sky130_fd_sc_hd__decap_12
XFILLER_28_589 VGND VGND VPWR VPWR sky130_fd_sc_hd__decap_3
XFILLER_130_44 VGND VGND VPWR VPWR sky130_fd_sc_hd__decap_12
XFILLER_43_548 VGND VGND VPWR VPWR sky130_fd_sc_hd__fill_1
XPHY_702 VGND VPWR sky130_fd_sc_hd__tapvpwrvgnd_1
XPHY_2024 VGND VPWR sky130_fd_sc_hd__tapvpwrvgnd_1
XPHY_2035 VGND VPWR sky130_fd_sc_hd__tapvpwrvgnd_1
XPHY_2013 VGND VPWR sky130_fd_sc_hd__tapvpwrvgnd_1
XPHY_2002 VGND VPWR sky130_fd_sc_hd__tapvpwrvgnd_1
XPHY_713 VGND VPWR sky130_fd_sc_hd__tapvpwrvgnd_1
XPHY_724 VGND VPWR sky130_fd_sc_hd__tapvpwrvgnd_1
XPHY_735 VGND VPWR sky130_fd_sc_hd__tapvpwrvgnd_1
XPHY_2068 VGND VPWR sky130_fd_sc_hd__tapvpwrvgnd_1
XPHY_2057 VGND VPWR sky130_fd_sc_hd__tapvpwrvgnd_1
XPHY_2046 VGND VPWR sky130_fd_sc_hd__tapvpwrvgnd_1
XPHY_1312 VGND VPWR sky130_fd_sc_hd__tapvpwrvgnd_1
XPHY_1323 VGND VPWR sky130_fd_sc_hd__tapvpwrvgnd_1
XPHY_1301 VGND VPWR sky130_fd_sc_hd__tapvpwrvgnd_1
X_200_ _203_/A VGND VGND VPWR VPWR _200_/X sky130_fd_sc_hd__buf_2
XPHY_746 VGND VPWR sky130_fd_sc_hd__tapvpwrvgnd_1
XPHY_757 VGND VPWR sky130_fd_sc_hd__tapvpwrvgnd_1
XPHY_768 VGND VPWR sky130_fd_sc_hd__tapvpwrvgnd_1
X__dut__.__uuf__._1969_ __dut__._2231_/B __dut__._2237_/B VGND VGND VPWR VPWR __dut__.__uuf__._1970_/A
+ sky130_fd_sc_hd__and2_4
XFILLER_156_428 VGND VGND VPWR VPWR sky130_fd_sc_hd__decap_6
XFILLER_139_20 VGND VGND VPWR VPWR sky130_fd_sc_hd__decap_12
XPHY_2079 VGND VPWR sky130_fd_sc_hd__tapvpwrvgnd_1
XPHY_1356 VGND VPWR sky130_fd_sc_hd__tapvpwrvgnd_1
XPHY_1345 VGND VPWR sky130_fd_sc_hd__tapvpwrvgnd_1
XPHY_1334 VGND VPWR sky130_fd_sc_hd__tapvpwrvgnd_1
X_131_ _309_/Q VGND VGND VPWR VPWR _131_/Y sky130_fd_sc_hd__inv_2
XPHY_779 VGND VPWR sky130_fd_sc_hd__tapvpwrvgnd_1
XPHY_1389 VGND VPWR sky130_fd_sc_hd__tapvpwrvgnd_1
XPHY_1378 VGND VPWR sky130_fd_sc_hd__tapvpwrvgnd_1
Xclkbuf_3_1_0_tck clkbuf_3_1_0_tck/A VGND VGND VPWR VPWR clkbuf_4_3_0_tck/A sky130_fd_sc_hd__clkbuf_1
XPHY_1367 VGND VPWR sky130_fd_sc_hd__tapvpwrvgnd_1
XANTENNA___dut__._2524__A rst VGND VGND VPWR VPWR sky130_fd_sc_hd__diode_2
XFILLER_139_86 VGND VGND VPWR VPWR sky130_fd_sc_hd__decap_12
XFILLER_136_141 VGND VGND VPWR VPWR sky130_fd_sc_hd__decap_12
XANTENNA___dut__.__uuf__._1033__A3 prod[61] VGND VGND VPWR VPWR sky130_fd_sc_hd__diode_2
Xpsn_inst_psn_buff_90 __dut__._1418_/A1 VGND VGND VPWR VPWR __dut__._2268_/A1 sky130_fd_sc_hd__buf_2
XFILLER_155_85 VGND VGND VPWR VPWR sky130_fd_sc_hd__decap_12
XFILLER_152_678 VGND VGND VPWR VPWR sky130_fd_sc_hd__decap_12
XFILLER_105_550 VGND VGND VPWR VPWR sky130_fd_sc_hd__decap_12
X__dut__._2706_ rst VGND VGND VPWR VPWR __dut__._2706_/Y sky130_fd_sc_hd__inv_2
XFILLER_120_520 VGND VGND VPWR VPWR sky130_fd_sc_hd__decap_12
XFILLER_78_445 VGND VGND VPWR VPWR sky130_fd_sc_hd__decap_12
X__dut__._2637_ rst VGND VGND VPWR VPWR __dut__._2637_/Y sky130_fd_sc_hd__inv_2
X__dut__._2568_ rst VGND VGND VPWR VPWR __dut__._2568_/Y sky130_fd_sc_hd__inv_2
XFILLER_93_415 VGND VGND VPWR VPWR sky130_fd_sc_hd__decap_12
XFILLER_66_629 VGND VGND VPWR VPWR sky130_fd_sc_hd__decap_12
X__dut__._1519_ __dut__._2509_/A __dut__._2846_/Q VGND VGND VPWR VPWR __dut__._1519_/X
+ sky130_fd_sc_hd__and2_4
X__dut__._2499_ __dut__._2499_/A prod[58] VGND VGND VPWR VPWR __dut__._2499_/X sky130_fd_sc_hd__and2_4
XANTENNA___dut__._1603__A __dut__._2509_/A VGND VGND VPWR VPWR sky130_fd_sc_hd__diode_2
XFILLER_64_93 VGND VGND VPWR VPWR sky130_fd_sc_hd__decap_12
XFILLER_61_367 VGND VGND VPWR VPWR sky130_fd_sc_hd__decap_12
XFILLER_42_581 VGND VGND VPWR VPWR sky130_fd_sc_hd__decap_12
XFILLER_147_428 VGND VGND VPWR VPWR sky130_fd_sc_hd__decap_12
XFILLER_128_642 VGND VGND VPWR VPWR sky130_fd_sc_hd__decap_12
XPHY_1890 VGND VPWR sky130_fd_sc_hd__tapvpwrvgnd_1
XFILLER_155_483 VGND VGND VPWR VPWR sky130_fd_sc_hd__decap_4
XFILLER_143_623 VGND VGND VPWR VPWR sky130_fd_sc_hd__decap_12
XFILLER_116_837 VGND VGND VPWR VPWR sky130_fd_sc_hd__decap_4
XFILLER_127_196 VGND VGND VPWR VPWR sky130_fd_sc_hd__decap_12
XFILLER_50_3 VGND VGND VPWR VPWR sky130_fd_sc_hd__decap_4
XFILLER_142_166 VGND VGND VPWR VPWR sky130_fd_sc_hd__decap_12
XANTENNA_psn_inst_psn_buff_273_A __dut__._2507_/A VGND VGND VPWR VPWR sky130_fd_sc_hd__diode_2
XFILLER_123_391 VGND VGND VPWR VPWR sky130_fd_sc_hd__decap_12
XFILLER_111_586 VGND VGND VPWR VPWR sky130_fd_sc_hd__decap_12
XFILLER_69_489 VGND VGND VPWR VPWR sky130_fd_sc_hd__decap_12
XFILLER_56_117 VGND VGND VPWR VPWR sky130_fd_sc_hd__decap_12
XFILLER_84_459 VGND VGND VPWR VPWR sky130_fd_sc_hd__decap_12
XANTENNA___dut__._1428__A2 mc[21] VGND VGND VPWR VPWR sky130_fd_sc_hd__diode_2
XFILLER_65_684 VGND VGND VPWR VPWR sky130_fd_sc_hd__decap_12
XANTENNA___dut__._2609__A rst VGND VGND VPWR VPWR sky130_fd_sc_hd__diode_2
XFILLER_52_312 VGND VGND VPWR VPWR sky130_fd_sc_hd__decap_12
XANTENNA___dut__._1513__A __dut__._2189_/A VGND VGND VPWR VPWR sky130_fd_sc_hd__diode_2
XFILLER_25_548 VGND VGND VPWR VPWR sky130_fd_sc_hd__fill_1
XFILLER_80_654 VGND VGND VPWR VPWR sky130_fd_sc_hd__decap_12
X__dut__.__uuf__._1823_ __dut__.__uuf__._1844_/A __dut__.__uuf__._1823_/B __dut__.__uuf__._1823_/C
+ VGND VGND VPWR VPWR __dut__.__uuf__._1824_/A sky130_fd_sc_hd__or3_4
XFILLER_60_18 VGND VGND VPWR VPWR sky130_fd_sc_hd__decap_12
X__dut__.__uuf__._1754_ __dut__._2151_/B __dut__._2157_/B VGND VGND VPWR VPWR __dut__.__uuf__._1755_/A
+ sky130_fd_sc_hd__and2_4
XANTENNA___dut__._1600__A2 mp[28] VGND VGND VPWR VPWR sky130_fd_sc_hd__diode_2
XFILLER_118_141 VGND VGND VPWR VPWR sky130_fd_sc_hd__decap_12
X__dut__.__uuf__._1685_ __dut__.__uuf__._1678_/A __dut__.__uuf__._1683_/B __dut__.__uuf__._1661_/X
+ VGND VGND VPWR VPWR __dut__._2122_/A2 sky130_fd_sc_hd__o21a_4
XFILLER_146_483 VGND VGND VPWR VPWR sky130_fd_sc_hd__decap_12
XFILLER_107_837 VGND VGND VPWR VPWR sky130_fd_sc_hd__decap_4
X__dut__._1870_ __dut__._1870_/A1 tie[87] __dut__._1869_/X VGND VGND VPWR VPWR __dut__._2992_/D
+ sky130_fd_sc_hd__a21o_4
XFILLER_69_27 VGND VGND VPWR VPWR sky130_fd_sc_hd__decap_12
XFILLER_134_678 VGND VGND VPWR VPWR sky130_fd_sc_hd__decap_12
XFILLER_122_829 VGND VGND VPWR VPWR sky130_fd_sc_hd__fill_1
XFILLER_121_306 VGND VGND VPWR VPWR sky130_fd_sc_hd__decap_12
XANTENNA___dut__._3090__CLK __dut__._3093_/CLK VGND VGND VPWR VPWR sky130_fd_sc_hd__diode_2
X__dut__.__uuf__._2306_ __dut__.__uuf__._2334_/CLK __dut__._2392_/X __dut__.__uuf__._1199_/X
+ VGND VGND VPWR VPWR prod[5] sky130_fd_sc_hd__dfrtp_4
XFILLER_102_520 VGND VGND VPWR VPWR sky130_fd_sc_hd__decap_12
XFILLER_87_220 VGND VGND VPWR VPWR sky130_fd_sc_hd__decap_12
X__dut__.__uuf__._2237_ __dut__.__uuf__._2240_/CLK __dut__._2254_/X __dut__.__uuf__._1532_/X
+ VGND VGND VPWR VPWR __dut__._2255_/B sky130_fd_sc_hd__dfrtp_4
XFILLER_88_776 VGND VGND VPWR VPWR sky130_fd_sc_hd__decap_12
XFILLER_75_415 VGND VGND VPWR VPWR sky130_fd_sc_hd__decap_12
XFILLER_48_629 VGND VGND VPWR VPWR sky130_fd_sc_hd__decap_12
X__dut__._2422_ __dut__._2422_/A1 __dut__._2422_/A2 __dut__._2421_/X VGND VGND VPWR
+ VPWR __dut__._2422_/X sky130_fd_sc_hd__a21o_4
X__dut__.__uuf__._2168_ __dut__.__uuf__._2291_/CLK __dut__._2116_/X __dut__.__uuf__._1641_/X
+ VGND VGND VPWR VPWR __dut__._2117_/B sky130_fd_sc_hd__dfrtp_4
X__dut__.__uuf__._2099_ VGND VGND VPWR VPWR __dut__.__uuf__._2099_/HI tie[106] sky130_fd_sc_hd__conb_1
XFILLER_18_53 VGND VGND VPWR VPWR sky130_fd_sc_hd__decap_4
X__dut__.__uuf__._1119_ __dut__.__uuf__._1118_/X __dut__.__uuf__._1115_/X prod[33]
+ prod[34] __dut__.__uuf__._1111_/X VGND VGND VPWR VPWR __dut__._2448_/A2 sky130_fd_sc_hd__a32o_4
X__dut__._2353_ __dut__._2407_/A __dut__._2353_/B VGND VGND VPWR VPWR __dut__._2353_/X
+ sky130_fd_sc_hd__and2_4
XFILLER_141_54 VGND VGND VPWR VPWR sky130_fd_sc_hd__decap_6
XANTENNA___dut__._2519__A rst VGND VGND VPWR VPWR sky130_fd_sc_hd__diode_2
XANTENNA___dut__._1423__A __dut__._2509_/A VGND VGND VPWR VPWR sky130_fd_sc_hd__diode_2
X__dut__._2284_ __dut__._2288_/A1 __dut__._2284_/A2 __dut__._2283_/X VGND VGND VPWR
+ VPWR __dut__._2284_/X sky130_fd_sc_hd__a21o_4
XFILLER_141_98 VGND VGND VPWR VPWR sky130_fd_sc_hd__decap_12
XFILLER_43_367 VGND VGND VPWR VPWR sky130_fd_sc_hd__decap_8
XPHY_510 VGND VPWR sky130_fd_sc_hd__tapvpwrvgnd_1
XPHY_521 VGND VPWR sky130_fd_sc_hd__tapvpwrvgnd_1
XPHY_532 VGND VPWR sky130_fd_sc_hd__tapvpwrvgnd_1
XPHY_543 VGND VPWR sky130_fd_sc_hd__tapvpwrvgnd_1
XPHY_1131 VGND VPWR sky130_fd_sc_hd__tapvpwrvgnd_1
XPHY_1120 VGND VPWR sky130_fd_sc_hd__tapvpwrvgnd_1
XFILLER_11_231 VGND VGND VPWR VPWR sky130_fd_sc_hd__fill_1
XPHY_554 VGND VPWR sky130_fd_sc_hd__tapvpwrvgnd_1
XPHY_565 VGND VPWR sky130_fd_sc_hd__tapvpwrvgnd_1
XPHY_576 VGND VPWR sky130_fd_sc_hd__tapvpwrvgnd_1
XPHY_587 VGND VPWR sky130_fd_sc_hd__tapvpwrvgnd_1
XFILLER_129_428 VGND VGND VPWR VPWR sky130_fd_sc_hd__decap_12
XPHY_1175 VGND VPWR sky130_fd_sc_hd__tapvpwrvgnd_1
XPHY_1164 VGND VPWR sky130_fd_sc_hd__tapvpwrvgnd_1
XPHY_1153 VGND VPWR sky130_fd_sc_hd__tapvpwrvgnd_1
XPHY_1142 VGND VPWR sky130_fd_sc_hd__tapvpwrvgnd_1
XPHY_598 VGND VPWR sky130_fd_sc_hd__tapvpwrvgnd_1
XFILLER_156_269 VGND VGND VPWR VPWR sky130_fd_sc_hd__decap_8